<?xml version="1.0" encoding="UTF-8"?>
<routes>
    <!-- Vehicle types -->
    <vType id="car" accel="2.6" decel="4.5" sigma="0.5" length="5.0"
           minGap="2.5" maxSpeed="13.89" color="1,0.5,0.5" guiShape="passenger"/>
    <vType id="truck" accel="1.3" decel="3.0" sigma="0.5" length="12.0"
           minGap="3.0" maxSpeed="11.11" color="0.5,0.5,1" guiShape="truck"/>
    <vType id="bus" accel="1.5" decel="3.5" sigma="0.5" length="15.0"
           minGap="3.5" maxSpeed="12.50" color="0.5,1,0.5" guiShape="bus"/>

    <!-- North-South flows -->
    <flow id="ns_car" type="car" from="NC" to="CS" begin="0" end="3600"
          vehsPerHour="400" departSpeed="max" departLane="best"/>
    <flow id="ns_truck" type="truck" from="NC" to="CS" begin="0" end="3600"
          vehsPerHour="100" departSpeed="max" departLane="best"/>
    <flow id="ns_bus" type="bus" from="NC" to="CS" begin="0" end="3600"
          vehsPerHour="50" departSpeed="max" departLane="best"/>

    <!-- South-North flows -->
    <flow id="sn_car" type="car" from="SC" to="CN" begin="0" end="3600"
          vehsPerHour="350" departSpeed="max" departLane="best"/>
    <flow id="sn_truck" type="truck" from="SC" to="CN" begin="0" end="3600"
          vehsPerHour="80" departSpeed="max" departLane="best"/>

    <!-- East-West flows -->
    <flow id="ew_car" type="car" from="EC" to="CW" begin="0" end="3600"
          vehsPerHour="300" departSpeed="max" departLane="best"/>
    <flow id="ew_truck" type="truck" from="EC" to="CW" begin="0" end="3600"
          vehsPerHour="60" departSpeed="max" departLane="best"/>
    <flow id="ew_bus" type="bus" from="EC" to="CW" begin="0" end="3600"
          vehsPerHour="30" departSpeed="max" departLane="best"/>

    <!-- West-East flows -->
    <flow id="we_car" type="car" from="WC" to="CE" begin="0" end="3600"
          vehsPerHour="320" departSpeed="max" departLane="best"/>
    <flow id="we_truck" type="truck" from="WC" to="CE" begin="0" end="3600"
          vehsPerHour="70" departSpeed="max" departLane="best"/>
</routes>
