<?xml version="1.0" encoding="UTF-8"?>

<!-- generated on 2026-04-16T17:52:39.172180-08:00 by Eclipse SUMO netgenerate 1.26.0
<netgenerateConfiguration xmlns:xsi="http://www.w3.org/2001/XMLSchema-instance" xsi:noNamespaceSchemaLocation="http://sumo.dlr.de/xsd/netgenerateConfiguration.xsd">

    <random_network>
        <rand value="true"/>
        <rand.iterations value="40"/>
        <rand.max-distance value="150"/>
    </random_network>

    <output>
        <output-file value="D:\research project\NeurIPS\logic building\Meta-MOHRL- Antigravity code building\sumo_configs\15_topologies\topo_11_heterogeneous_mesh_D.net.xml"/>
    </output>

</netgenerateConfiguration>
-->

<net version="1.20" junctionCornerDetail="5" limitTurnSpeed="5.50" xmlns:xsi="http://www.w3.org/2001/XMLSchema-instance" xsi:noNamespaceSchemaLocation="http://sumo.dlr.de/xsd/net_file.xsd">

    <location netOffset="363.96,518.23" convBoundary="0.00,0.00,853.17,878.17" origBoundary="-363.96,-518.23,489.22,359.94" projParameter="!"/>

    <edge id=":1_0" function="internal">
        <lane id=":1_0_0" index="0" speed="5.98" length="9.08" shape="362.49,526.53 362.08,523.96 360.95,522.38 359.10,521.80 356.53,522.21"/>
    </edge>
    <edge id=":1_1" function="internal">
        <lane id=":1_1_0" index="0" speed="13.89" length="14.86" shape="362.49,526.53 362.35,522.80 362.04,519.11 361.52,515.45 360.77,511.80"/>
    </edge>
    <edge id=":1_2" function="internal">
        <lane id=":1_2_0" index="0" speed="8.09" length="4.36" shape="362.49,526.53 362.99,522.19"/>
    </edge>
    <edge id=":1_3" function="internal">
        <lane id=":1_3_0" index="0" speed="3.65" length="1.44" shape="362.49,526.53 363.27,525.31"/>
    </edge>
    <edge id=":1_16" function="internal">
        <lane id=":1_16_0" index="0" speed="8.09" length="10.76" shape="362.99,522.19 364.64,519.14 367.44,517.38 371.39,516.91"/>
    </edge>
    <edge id=":1_17" function="internal">
        <lane id=":1_17_0" index="0" speed="3.65" length="3.23" shape="363.27,525.31 364.06,524.90 364.87,525.29 365.69,526.48"/>
    </edge>
    <edge id=":1_4" function="internal">
        <lane id=":1_4_0" index="0" speed="6.62" length="9.76" shape="371.27,520.11 368.79,520.43 367.03,521.59 366.00,523.61 365.69,526.48"/>
    </edge>
    <edge id=":1_5" function="internal">
        <lane id=":1_5_0" index="0" speed="13.89" length="14.95" shape="371.27,520.11 367.53,520.15 363.82,520.53 360.15,521.23 356.53,522.21"/>
    </edge>
    <edge id=":1_6" function="internal">
        <lane id=":1_6_0" index="0" speed="9.03" length="14.51" shape="371.27,520.11 367.40,519.47 364.35,517.87 362.15,515.31 360.77,511.80"/>
    </edge>
    <edge id=":1_7" function="internal">
        <lane id=":1_7_0" index="0" speed="3.65" length="4.67" shape="371.27,520.11 370.10,519.26 369.73,518.45 370.16,517.66 371.39,516.91"/>
    </edge>
    <edge id=":1_8" function="internal">
        <lane id=":1_8_0" index="0" speed="7.70" length="10.32" shape="363.88,511.05 364.86,513.53 366.43,515.33 368.61,516.46 371.39,516.91"/>
    </edge>
    <edge id=":1_9" function="internal">
        <lane id=":1_9_0" index="0" speed="13.89" length="15.56" shape="363.88,511.05 364.65,514.81 365.19,518.71 365.54,522.64 365.69,526.48"/>
    </edge>
    <edge id=":1_10" function="internal">
        <lane id=":1_10_0" index="0" speed="8.41" length="4.08" shape="363.88,511.05 364.17,514.85 364.07,515.11"/>
    </edge>
    <edge id=":1_11" function="internal">
        <lane id=":1_11_0" index="0" speed="3.65" length="1.44" shape="363.88,511.05 363.38,512.41"/>
    </edge>
    <edge id=":1_18" function="internal">
        <lane id=":1_18_0" index="0" speed="8.41" length="10.92" shape="364.07,515.11 363.04,517.97 360.49,520.43 356.53,522.21"/>
    </edge>
    <edge id=":1_19" function="internal">
        <lane id=":1_19_0" index="0" speed="3.65" length="3.23" shape="363.38,512.41 362.70,512.98 361.83,512.78 360.77,511.80"/>
    </edge>
    <edge id=":1_12" function="internal">
        <lane id=":1_12_0" index="0" speed="7.00" length="10.09" shape="355.58,519.15 358.33,517.94 360.12,516.31 360.93,514.26 360.77,511.80"/>
    </edge>
    <edge id=":1_13" function="internal">
        <lane id=":1_13_0" index="0" speed="13.89" length="16.03" shape="355.58,519.15 359.37,518.15 363.41,517.41 367.49,516.97 371.39,516.91"/>
    </edge>
    <edge id=":1_14" function="internal">
        <lane id=":1_14_0" index="0" speed="7.59" length="15.41" shape="355.58,519.15 359.94,518.45 363.08,519.44 365.00,522.12 365.69,526.48"/>
    </edge>
    <edge id=":1_15" function="internal">
        <lane id=":1_15_0" index="0" speed="3.65" length="4.67" shape="355.58,519.15 356.97,519.56 357.59,520.21 357.44,521.09 356.53,522.21"/>
    </edge>
    <edge id=":10_0" function="internal">
        <lane id=":10_0_0" index="0" speed="9.88" length="12.83" shape="253.81,554.09 250.94,555.39 248.63,557.36 246.87,559.97 245.67,563.25"/>
    </edge>
    <edge id=":10_1" function="internal">
        <lane id=":10_1_0" index="0" speed="13.89" length="16.13" shape="253.81,554.09 250.02,555.10 245.96,555.90 241.86,556.46 237.94,556.77"/>
    </edge>
    <edge id=":10_2" function="internal">
        <lane id=":10_2_0" index="0" speed="7.92" length="4.41" shape="253.81,554.09 249.83,554.70 249.46,554.60"/>
    </edge>
    <edge id=":10_3" function="internal">
        <lane id=":10_3_0" index="0" speed="3.65" length="1.44" shape="253.81,554.09 252.43,553.68"/>
    </edge>
    <edge id=":10_16" function="internal">
        <lane id=":10_16_0" index="0" speed="7.92" length="10.36" shape="249.46,554.60 246.69,553.81 244.40,551.41 242.95,547.51"/>
    </edge>
    <edge id=":10_17" function="internal">
        <lane id=":10_17_0" index="0" speed="3.65" length="3.23" shape="252.43,553.68 251.81,553.04 251.95,552.15 252.86,551.03"/>
    </edge>
    <edge id=":10_4" function="internal">
        <lane id=":10_4_0" index="0" speed="6.41" length="9.29" shape="246.08,546.82 246.99,549.30 248.42,550.83 250.38,551.41 252.86,551.03"/>
    </edge>
    <edge id=":10_5" function="internal">
        <lane id=":10_5_0" index="0" speed="13.89" length="16.55" shape="246.08,546.82 246.64,550.77 246.74,555.05 246.41,559.32 245.67,563.25"/>
    </edge>
    <edge id=":10_6" function="internal">
        <lane id=":10_6_0" index="0" speed="7.83" length="15.29" shape="246.08,546.82 246.35,550.99 245.09,554.04 242.28,555.97 237.94,556.77"/>
    </edge>
    <edge id=":10_7" function="internal">
        <lane id=":10_7_0" index="0" speed="3.65" length="4.67" shape="246.08,546.82 245.56,548.17 244.86,548.73 243.99,548.51 242.95,547.51"/>
    </edge>
    <edge id=":10_8" function="internal">
        <lane id=":10_8_0" index="0" speed="6.29" length="9.47" shape="237.79,553.57 240.53,553.08 242.30,551.91 243.11,550.05 242.95,547.51"/>
    </edge>
    <edge id=":10_9" function="internal">
        <lane id=":10_9_0" index="0" speed="13.89" length="15.32" shape="237.79,553.57 241.58,553.28 245.41,552.77 249.20,552.02 252.86,551.03"/>
    </edge>
    <edge id=":10_10" function="internal">
        <lane id=":10_10_0" index="0" speed="7.57" length="4.09" shape="237.79,553.57 241.87,553.96"/>
    </edge>
    <edge id=":10_11" function="internal">
        <lane id=":10_11_0" index="0" speed="3.65" length="1.44" shape="237.79,553.57 239.03,554.31"/>
    </edge>
    <edge id=":10_18" function="internal">
        <lane id=":10_18_0" index="0" speed="7.57" length="11.38" shape="241.87,553.96 242.22,553.99 245.00,555.74 246.15,558.83 245.67,563.25"/>
    </edge>
    <edge id=":10_19" function="internal">
        <lane id=":10_19_0" index="0" speed="3.65" length="3.23" shape="239.03,554.31 239.47,555.09 239.10,555.91 237.94,556.77"/>
    </edge>
    <edge id=":10_12" function="internal">
        <lane id=":10_12_0" index="0" speed="5.96" length="9.09" shape="242.57,562.45 242.85,559.86 242.18,558.04 240.54,557.01 237.94,556.77"/>
    </edge>
    <edge id=":10_13" function="internal">
        <lane id=":10_13_0" index="0" speed="13.89" length="15.07" shape="242.57,562.45 243.30,558.76 243.63,555.00 243.52,551.22 242.95,547.51"/>
    </edge>
    <edge id=":10_14" function="internal">
        <lane id=":10_14_0" index="0" speed="10.93" length="15.82" shape="242.57,562.45 244.10,558.96 246.64,555.53 249.73,552.71 252.86,551.03"/>
    </edge>
    <edge id=":10_15" function="internal">
        <lane id=":10_15_0" index="0" speed="3.65" length="4.67" shape="242.57,562.45 243.64,561.49 244.51,561.30 245.19,561.89 245.67,563.25"/>
    </edge>
    <edge id=":14_0" function="internal">
        <lane id=":14_0_0" index="0" speed="13.89" length="12.67" shape="284.91,279.41 283.49,276.32 282.05,273.73 280.29,271.38 277.89,269.00"/>
    </edge>
    <edge id=":14_1" function="internal">
        <lane id=":14_1_0" index="0" speed="7.69" length="4.03" shape="284.91,279.41 283.82,275.53"/>
    </edge>
    <edge id=":14_2" function="internal">
        <lane id=":14_2_0" index="0" speed="3.65" length="1.44" shape="284.91,279.41 285.16,277.99"/>
    </edge>
    <edge id=":14_9" function="internal">
        <lane id=":14_9_0" index="0" speed="7.69" length="10.97" shape="283.82,275.53 283.76,275.33 284.32,272.11 286.58,269.75 290.55,268.26"/>
    </edge>
    <edge id=":14_10" function="internal">
        <lane id=":14_10_0" index="0" speed="3.65" length="3.23" shape="285.16,277.99 285.73,277.30 286.62,277.34 287.84,278.11"/>
    </edge>
    <edge id=":14_3" function="internal">
        <lane id=":14_3_0" index="0" speed="6.12" length="9.06" shape="291.24,271.38 288.85,272.28 287.48,273.71 287.14,275.65 287.84,278.11"/>
    </edge>
    <edge id=":14_4" function="internal">
        <lane id=":14_4_0" index="0" speed="10.87" length="14.07" shape="291.24,271.38 287.21,271.94 283.64,271.73 280.54,270.75 277.89,269.00"/>
    </edge>
    <edge id=":14_5" function="internal">
        <lane id=":14_5_0" index="0" speed="3.65" length="4.67" shape="291.24,271.38 289.89,270.86 289.33,270.16 289.55,269.30 290.55,268.26"/>
    </edge>
    <edge id=":14_6" function="internal">
        <lane id=":14_6_0" index="0" speed="9.69" length="11.06" shape="280.01,266.61 282.02,267.90 284.45,268.61 287.29,268.73 290.55,268.26"/>
    </edge>
    <edge id=":14_7" function="internal">
        <lane id=":14_7_0" index="0" speed="13.89" length="14.03" shape="280.01,266.61 282.53,269.16 284.57,271.89 286.29,274.85 287.84,278.11"/>
    </edge>
    <edge id=":14_8" function="internal">
        <lane id=":14_8_0" index="0" speed="3.65" length="1.44" shape="280.01,266.61 280.38,268.00"/>
    </edge>
    <edge id=":14_11" function="internal">
        <lane id=":14_11_0" index="0" speed="3.65" length="3.23" shape="280.38,268.00 280.15,268.86 279.32,269.20 277.89,269.00"/>
    </edge>
    <edge id=":18_0" function="internal">
        <lane id=":18_0_0" index="0" speed="6.15" length="10.49" shape="400.75,254.39 398.73,252.65 396.76,252.47 394.83,253.85 392.94,256.77"/>
    </edge>
    <edge id=":18_1" function="internal">
        <lane id=":18_1_0" index="0" speed="10.41" length="15.94" shape="400.75,254.39 397.96,251.82 394.61,250.29 390.69,249.80 386.20,250.34"/>
    </edge>
    <edge id=":18_2" function="internal">
        <lane id=":18_2_0" index="0" speed="13.89" length="18.58" shape="400.75,254.39 397.97,251.10 394.66,247.38 391.27,243.72 388.28,240.62"/>
    </edge>
    <edge id=":18_3" function="internal">
        <lane id=":18_3_0" index="0" speed="10.51" length="17.29" shape="400.75,254.39 398.27,250.48 397.10,246.48 397.27,242.41 398.76,238.25"/>
    </edge>
    <edge id=":18_4" function="internal">
        <lane id=":18_4_0" index="0" speed="3.65" length="4.67" shape="400.75,254.39 400.62,252.95 400.98,252.13 401.86,251.94 403.23,252.36"/>
    </edge>
    <edge id=":18_5" function="internal">
        <lane id=":18_5_0" index="0" speed="9.36" length="13.56" shape="401.61,239.71 400.45,242.96 400.34,246.14 401.26,249.28 403.23,252.36"/>
    </edge>
    <edge id=":18_6" function="internal">
        <lane id=":18_6_0" index="0" speed="13.89" length="19.13" shape="401.61,239.71 392.94,256.77"/>
    </edge>
    <edge id=":18_7" function="internal">
        <lane id=":18_7_0" index="0" speed="13.30" length="4.79" shape="401.61,239.71 399.08,243.43 398.86,243.62"/>
    </edge>
    <edge id=":18_8" function="internal">
        <lane id=":18_8_0" index="0" speed="7.79" length="4.25" shape="401.61,239.71 399.09,243.13"/>
    </edge>
    <edge id=":18_9" function="internal">
        <lane id=":18_9_0" index="0" speed="3.65" length="1.44" shape="401.61,239.71 400.35,240.42"/>
    </edge>
    <edge id=":18_25" function="internal">
        <lane id=":18_25_0" index="0" speed="13.30" length="14.54" shape="398.86,243.62 395.67,246.44 391.38,248.74 386.20,250.34"/>
    </edge>
    <edge id=":18_26" function="internal">
        <lane id=":18_26_0" index="0" speed="7.79" length="12.36" shape="399.09,243.13 398.96,243.30 395.86,244.65 392.30,243.76 388.28,240.62"/>
    </edge>
    <edge id=":18_27" function="internal">
        <lane id=":18_27_0" index="0" speed="3.65" length="3.23" shape="400.35,240.42 399.46,240.41 398.93,239.68 398.76,238.25"/>
    </edge>
    <edge id=":18_10" function="internal">
        <lane id=":18_10_0" index="0" speed="6.24" length="10.17" shape="390.55,238.36 393.08,240.38 395.29,241.04 397.19,240.33 398.76,238.25"/>
    </edge>
    <edge id=":18_11" function="internal">
        <lane id=":18_11_0" index="0" speed="13.89" length="18.90" shape="390.55,238.36 393.57,241.50 397.03,245.24 400.42,249.04 403.23,252.36"/>
    </edge>
    <edge id=":18_12" function="internal">
        <lane id=":18_12_0" index="0" speed="10.75" length="19.98" shape="390.55,238.36 393.60,242.43 395.02,246.85 394.80,251.63 392.94,256.77"/>
    </edge>
    <edge id=":18_13" function="internal">
        <lane id=":18_13_0" index="0" speed="7.51" length="17.74" shape="390.55,238.36 393.65,242.49 393.96,245.87 391.48,248.48 386.20,250.34"/>
    </edge>
    <edge id=":18_14" function="internal">
        <lane id=":18_14_0" index="0" speed="3.65" length="4.67" shape="390.55,238.36 390.83,239.78 390.54,240.63 389.69,240.91 388.28,240.62"/>
    </edge>
    <edge id=":18_15" function="internal">
        <lane id=":18_15_0" index="0" speed="5.79" length="9.92" shape="385.51,247.21 388.55,246.17 390.03,244.72 389.94,242.87 388.28,240.62"/>
    </edge>
    <edge id=":18_16" function="internal">
        <lane id=":18_16_0" index="0" speed="12.32" length="16.52" shape="385.51,247.21 390.00,245.84 393.70,243.89 396.63,241.36 398.76,238.25"/>
    </edge>
    <edge id=":18_17" function="internal">
        <lane id=":18_17_0" index="0" speed="11.47" length="19.49" shape="385.51,247.21 390.92,246.58 395.67,247.23 399.78,249.16 403.23,252.36"/>
    </edge>
    <edge id=":18_18" function="internal">
        <lane id=":18_18_0" index="0" speed="7.38" length="18.16" shape="385.51,247.21 391.15,246.66 394.26,248.07 394.86,251.44 392.94,256.77"/>
    </edge>
    <edge id=":18_19" function="internal">
        <lane id=":18_19_0" index="0" speed="3.65" length="4.67" shape="385.51,247.21 386.86,247.73 387.42,248.43 387.20,249.30 386.20,250.34"/>
    </edge>
    <edge id=":18_20" function="internal">
        <lane id=":18_20_0" index="0" speed="5.53" length="9.48" shape="390.08,255.33 391.09,252.55 390.77,250.79 389.15,250.05 386.20,250.34"/>
    </edge>
    <edge id=":18_21" function="internal">
        <lane id=":18_21_0" index="0" speed="9.65" length="15.94" shape="390.08,255.33 391.59,251.20 391.79,247.37 390.69,243.84 388.28,240.62"/>
    </edge>
    <edge id=":18_22" function="internal">
        <lane id=":18_22_0" index="0" speed="13.89" length="19.15" shape="390.08,255.33 398.76,238.25"/>
    </edge>
    <edge id=":18_23" function="internal">
        <lane id=":18_23_0" index="0" speed="7.74" length="5.53" shape="390.08,255.33 393.14,250.72"/>
    </edge>
    <edge id=":18_24" function="internal">
        <lane id=":18_24_0" index="0" speed="3.65" length="1.44" shape="390.08,255.33 391.34,254.61"/>
    </edge>
    <edge id=":18_28" function="internal">
        <lane id=":18_28_0" index="0" speed="7.74" length="11.92" shape="393.14,250.72 396.35,248.69 399.71,249.24 403.23,252.36"/>
    </edge>
    <edge id=":18_29" function="internal">
        <lane id=":18_29_0" index="0" speed="3.65" length="3.23" shape="391.34,254.61 392.23,254.62 392.77,255.33 392.94,256.77"/>
    </edge>
    <edge id=":196_0" function="internal">
        <lane id=":196_0_0" index="0" speed="13.89" length="17.25" shape="718.41,430.69 714.29,430.93 709.83,431.78 705.55,433.23 702.01,435.24"/>
    </edge>
    <edge id=":196_1" function="internal">
        <lane id=":196_1_0" index="0" speed="13.89" length="19.43" shape="718.41,430.69 713.98,430.21 708.81,429.07 703.81,427.42 699.87,425.43"/>
    </edge>
    <edge id=":196_2" function="internal">
        <lane id=":196_2_0" index="0" speed="7.38" length="18.09" shape="718.41,430.69 712.84,429.88 710.15,427.76 710.35,424.35 713.44,419.65"/>
    </edge>
    <edge id=":196_3" function="internal">
        <lane id=":196_3_0" index="0" speed="3.65" length="4.67" shape="718.41,430.69 717.22,429.86 716.84,429.05 717.26,428.26 718.48,427.49"/>
    </edge>
    <edge id=":196_4" function="internal">
        <lane id=":196_4_0" index="0" speed="5.53" length="9.47" shape="715.88,421.71 714.27,424.18 714.16,425.96 715.57,427.07 718.48,427.49"/>
    </edge>
    <edge id=":196_5" function="internal">
        <lane id=":196_5_0" index="0" speed="13.89" length="19.39" shape="715.88,421.71 712.91,425.01 709.23,428.77 705.40,432.38 702.01,435.24"/>
    </edge>
    <edge id=":196_6" function="internal">
        <lane id=":196_6_0" index="0" speed="9.38" length="6.07" shape="715.88,421.71 711.94,425.42 711.34,425.70"/>
    </edge>
    <edge id=":196_7" function="internal">
        <lane id=":196_7_0" index="0" speed="3.65" length="1.44" shape="715.88,421.71 714.49,422.11"/>
    </edge>
    <edge id=":196_16" function="internal">
        <lane id=":196_16_0" index="0" speed="9.38" length="12.22" shape="711.34,425.70 707.96,427.27 703.94,427.27 699.87,425.43"/>
    </edge>
    <edge id=":196_17" function="internal">
        <lane id=":196_17_0" index="0" speed="3.65" length="3.23" shape="714.49,422.11 713.63,421.90 713.27,421.08 713.44,419.65"/>
    </edge>
    <edge id=":196_8" function="internal">
        <lane id=":196_8_0" index="0" speed="8.14" length="13.53" shape="701.66,422.78 704.58,424.06 707.51,423.96 710.46,422.49 713.44,419.65"/>
    </edge>
    <edge id=":196_9" function="internal">
        <lane id=":196_9_0" index="0" speed="13.89" length="17.63" shape="701.66,422.78 705.33,424.68 709.75,426.14 714.33,427.10 718.48,427.49"/>
    </edge>
    <edge id=":196_10" function="internal">
        <lane id=":196_10_0" index="0" speed="7.55" length="15.60" shape="701.66,422.78 705.00,425.80 706.17,428.88 705.17,432.03 702.01,435.24"/>
    </edge>
    <edge id=":196_11" function="internal">
        <lane id=":196_11_0" index="0" speed="3.65" length="4.67" shape="701.66,422.78 702.21,424.11 702.09,425.00 701.31,425.44 699.87,425.43"/>
    </edge>
    <edge id=":196_12" function="internal">
        <lane id=":196_12_0" index="0" speed="5.92" length="9.10" shape="700.07,432.69 701.92,430.82 702.50,428.99 701.81,427.19 699.87,425.43"/>
    </edge>
    <edge id=":196_13" function="internal">
        <lane id=":196_13_0" index="0" speed="13.89" length="18.70" shape="700.07,432.69 703.38,429.91 707.04,426.46 710.55,422.87 713.44,419.65"/>
    </edge>
    <edge id=":196_14" function="internal">
        <lane id=":196_14_0" index="0" speed="13.89" length="3.61" shape="700.07,432.69 703.24,430.96"/>
    </edge>
    <edge id=":196_15" function="internal">
        <lane id=":196_15_0" index="0" speed="3.65" length="1.44" shape="700.07,432.69 701.51,432.60"/>
    </edge>
    <edge id=":196_18" function="internal">
        <lane id=":196_18_0" index="0" speed="13.89" length="15.74" shape="703.24,430.96 703.92,430.58 708.89,428.91 714.06,427.83 718.48,427.49"/>
    </edge>
    <edge id=":196_19" function="internal">
        <lane id=":196_19_0" index="0" speed="3.65" length="3.23" shape="701.51,432.60 702.32,432.99 702.48,433.87 702.01,435.24"/>
    </edge>
    <edge id=":2_0" function="internal">
        <lane id=":2_0_0" index="0" speed="13.89" length="15.61" shape="329.85,383.08 328.79,379.39 327.44,375.68 325.92,372.01 324.38,368.49"/>
    </edge>
    <edge id=":2_1" function="internal">
        <lane id=":2_1_0" index="0" speed="13.89" length="3.23" shape="329.85,383.08 329.67,379.86"/>
    </edge>
    <edge id=":2_2" function="internal">
        <lane id=":2_2_0" index="0" speed="3.65" length="1.44" shape="329.85,383.08 330.35,381.73"/>
    </edge>
    <edge id=":2_9" function="internal">
        <lane id=":2_9_0" index="0" speed="13.89" length="13.23" shape="329.67,379.86 329.63,379.20 330.45,375.07 331.91,371.01 333.62,367.35"/>
    </edge>
    <edge id=":2_10" function="internal">
        <lane id=":2_10_0" index="0" speed="3.65" length="3.23" shape="330.35,381.73 331.03,381.15 331.91,381.36 332.96,382.34"/>
    </edge>
    <edge id=":2_3" function="internal">
        <lane id=":2_3_0" index="0" speed="13.52" length="14.30" shape="336.47,368.79 334.81,372.11 333.44,375.41 332.70,378.80 332.96,382.34"/>
    </edge>
    <edge id=":2_4" function="internal">
        <lane id=":2_4_0" index="0" speed="7.38" length="18.18" shape="336.47,368.79 333.33,373.51 330.27,375.03 327.28,373.36 324.38,368.49"/>
    </edge>
    <edge id=":2_5" function="internal">
        <lane id=":2_5_0" index="0" speed="3.65" length="4.67" shape="336.47,368.79 335.22,369.50 334.32,369.50 333.79,368.78 333.62,367.35"/>
    </edge>
    <edge id=":2_6" function="internal">
        <lane id=":2_6_0" index="0" speed="5.53" length="9.49" shape="327.30,367.19 328.82,369.73 330.38,370.61 331.98,369.81 333.62,367.35"/>
    </edge>
    <edge id=":2_7" function="internal">
        <lane id=":2_7_0" index="0" speed="13.89" length="16.19" shape="327.30,367.19 328.88,370.80 330.46,374.66 331.87,378.56 332.96,382.34"/>
    </edge>
    <edge id=":2_8" function="internal">
        <lane id=":2_8_0" index="0" speed="3.65" length="1.44" shape="327.30,367.19 327.06,368.61"/>
    </edge>
    <edge id=":2_11" function="internal">
        <lane id=":2_11_0" index="0" speed="3.65" length="3.23" shape="327.06,368.61 326.49,369.30 325.60,369.26 324.38,368.49"/>
    </edge>
    <edge id=":20_0" function="internal">
        <lane id=":20_0_0" index="0" speed="3.90" length="2.79" shape="253.89,624.96 253.12,624.85 252.52,625.03 252.11,625.49 251.87,626.22"/>
    </edge>
    <edge id=":20_1" function="internal">
        <lane id=":20_1_0" index="0" speed="6.07" length="8.36" shape="248.72,625.68 249.44,623.47 250.68,622.10 252.46,621.57 254.76,621.88"/>
    </edge>
    <edge id=":204_0" function="internal">
        <lane id=":204_0_0" index="0" speed="7.78" length="9.00" shape="110.45,344.20 108.54,343.13 106.49,342.72 104.30,343.00 101.96,343.94"/>
    </edge>
    <edge id=":204_1" function="internal">
        <lane id=":204_1_0" index="0" speed="13.89" length="12.75" shape="110.45,344.20 107.88,341.98 105.95,339.73 104.41,337.18 103.01,334.07"/>
    </edge>
    <edge id=":204_2" function="internal">
        <lane id=":204_2_0" index="0" speed="3.65" length="1.44" shape="110.45,344.20 109.98,342.83"/>
    </edge>
    <edge id=":204_9" function="internal">
        <lane id=":204_9_0" index="0" speed="3.65" length="3.23" shape="109.98,342.83 110.15,341.96 110.96,341.57 112.40,341.66"/>
    </edge>
    <edge id=":204_3" function="internal">
        <lane id=":204_3_0" index="0" speed="13.89" length="11.09" shape="105.98,332.87 107.21,335.77 108.40,337.86 109.99,339.66 112.40,341.66"/>
    </edge>
    <edge id=":204_4" function="internal">
        <lane id=":204_4_0" index="0" speed="8.03" length="3.55" shape="105.98,332.87 106.84,336.32"/>
    </edge>
    <edge id=":204_5" function="internal">
        <lane id=":204_5_0" index="0" speed="3.65" length="1.44" shape="105.98,332.87 105.69,334.28"/>
    </edge>
    <edge id=":204_10" function="internal">
        <lane id=":204_10_0" index="0" speed="8.03" length="9.59" shape="106.84,336.32 106.46,339.31 104.84,341.85 101.96,343.94"/>
    </edge>
    <edge id=":204_11" function="internal">
        <lane id=":204_11_0" index="0" speed="3.65" length="3.23" shape="105.69,334.28 105.09,334.96 104.20,334.89 103.01,334.07"/>
    </edge>
    <edge id=":204_6" function="internal">
        <lane id=":204_6_0" index="0" speed="6.53" length="8.36" shape="100.46,341.12 102.29,339.79 103.32,338.17 103.56,336.27 103.01,334.07"/>
    </edge>
    <edge id=":204_7" function="internal">
        <lane id=":204_7_0" index="0" speed="9.13" length="12.69" shape="100.46,341.12 103.69,339.83 106.76,339.49 109.66,340.10 112.40,341.66"/>
    </edge>
    <edge id=":204_8" function="internal">
        <lane id=":204_8_0" index="0" speed="3.65" length="4.67" shape="100.46,341.12 101.89,341.26 102.62,341.78 102.65,342.67 101.96,343.94"/>
    </edge>
    <edge id=":22_0" function="internal">
        <lane id=":22_0_0" index="0" speed="8.84" length="12.92" shape="341.74,753.72 338.46,753.99 335.69,755.18 333.44,757.31 331.69,760.35"/>
    </edge>
    <edge id=":22_1" function="internal">
        <lane id=":22_1_0" index="0" speed="13.89" length="16.89" shape="341.74,753.72 324.86,753.13"/>
    </edge>
    <edge id=":22_2" function="internal">
        <lane id=":22_2_0" index="0" speed="7.60" length="4.23" shape="341.74,753.72 337.59,752.89"/>
    </edge>
    <edge id=":22_3" function="internal">
        <lane id=":22_3_0" index="0" speed="3.65" length="1.44" shape="341.74,753.72 340.59,752.86"/>
    </edge>
    <edge id=":22_16" function="internal">
        <lane id=":22_16_0" index="0" speed="7.60" length="11.10" shape="337.59,752.89 337.45,752.86 334.85,750.85 333.95,747.69 334.75,743.38"/>
    </edge>
    <edge id=":22_17" function="internal">
        <lane id=":22_17_0" index="0" speed="3.65" length="3.23" shape="340.59,752.86 340.23,752.04 340.68,751.26 341.92,750.53"/>
    </edge>
    <edge id=":22_4" function="internal">
        <lane id=":22_4_0" index="0" speed="6.00" length="9.08" shape="337.78,744.41 337.31,746.96 337.84,748.83 339.38,750.02 341.92,750.53"/>
    </edge>
    <edge id=":22_5" function="internal">
        <lane id=":22_5_0" index="0" speed="13.89" length="17.07" shape="337.78,744.41 331.69,760.35"/>
    </edge>
    <edge id=":22_6" function="internal">
        <lane id=":22_6_0" index="0" speed="9.84" length="16.81" shape="337.78,744.41 335.85,748.28 333.05,751.03 329.39,752.64 324.86,753.13"/>
    </edge>
    <edge id=":22_7" function="internal">
        <lane id=":22_7_0" index="0" speed="3.65" length="4.67" shape="337.78,744.41 336.64,745.29 335.75,745.41 335.12,744.78 334.75,743.38"/>
    </edge>
    <edge id=":22_8" function="internal">
        <lane id=":22_8_0" index="0" speed="8.63" length="12.74" shape="324.91,749.93 328.37,749.57 331.16,748.35 333.29,746.29 334.75,743.38"/>
    </edge>
    <edge id=":22_9" function="internal">
        <lane id=":22_9_0" index="0" speed="13.89" length="17.02" shape="324.91,749.93 341.92,750.53"/>
    </edge>
    <edge id=":22_10" function="internal">
        <lane id=":22_10_0" index="0" speed="7.49" length="4.65" shape="324.91,749.93 329.51,750.65"/>
    </edge>
    <edge id=":22_11" function="internal">
        <lane id=":22_11_0" index="0" speed="3.65" length="1.44" shape="324.91,749.93 326.10,750.75"/>
    </edge>
    <edge id=":22_18" function="internal">
        <lane id=":22_18_0" index="0" speed="7.49" length="11.28" shape="329.51,750.65 332.17,752.62 332.90,755.86 331.69,760.35"/>
    </edge>
    <edge id=":22_19" function="internal">
        <lane id=":22_19_0" index="0" speed="3.65" length="3.23" shape="326.10,750.75 326.49,751.56 326.07,752.35 324.86,753.13"/>
    </edge>
    <edge id=":22_12" function="internal">
        <lane id=":22_12_0" index="0" speed="5.83" length="9.13" shape="328.74,759.10 329.44,756.53 329.02,754.67 327.49,753.54 324.86,753.13"/>
    </edge>
    <edge id=":22_13" function="internal">
        <lane id=":22_13_0" index="0" speed="13.89" length="16.82" shape="328.74,759.10 334.75,743.38"/>
    </edge>
    <edge id=":22_14" function="internal">
        <lane id=":22_14_0" index="0" speed="10.04" length="16.86" shape="328.74,759.10 331.02,755.16 333.97,752.41 337.60,750.87 341.92,750.53"/>
    </edge>
    <edge id=":22_15" function="internal">
        <lane id=":22_15_0" index="0" speed="3.65" length="4.67" shape="328.74,759.10 329.95,758.31 330.84,758.25 331.42,758.94 331.69,760.35"/>
    </edge>
    <edge id=":222_0" function="internal">
        <lane id=":222_0_0" index="0" speed="13.89" length="14.62" shape="125.24,512.65 114.65,522.72"/>
    </edge>
    <edge id=":222_1" function="internal">
        <lane id=":222_1_0" index="0" speed="9.31" length="3.61" shape="125.24,512.65 122.33,514.59 122.23,514.61"/>
    </edge>
    <edge id=":222_2" function="internal">
        <lane id=":222_2_0" index="0" speed="3.65" length="1.44" shape="125.24,512.65 123.82,512.88"/>
    </edge>
    <edge id=":222_9" function="internal">
        <lane id=":222_9_0" index="0" speed="9.31" length="11.22" shape="122.23,514.61 119.06,515.32 115.44,514.85 111.46,513.16"/>
    </edge>
    <edge id=":222_10" function="internal">
        <lane id=":222_10_0" index="0" speed="3.65" length="3.23" shape="123.82,512.88 122.98,512.56 122.73,511.71 123.06,510.30"/>
    </edge>
    <edge id=":222_3" function="internal">
        <lane id=":222_3_0" index="0" speed="8.02" length="10.79" shape="113.00,510.36 115.99,511.65 118.66,512.08 121.02,511.63 123.06,510.30"/>
    </edge>
    <edge id=":222_4" function="internal">