<?xml version="1.0" encoding="UTF-8"?>

<!-- generated on 2026-04-16T17:52:40.997916-08:00 by Eclipse SUMO netgenerate 1.26.0
<netgenerateConfiguration xmlns:xsi="http://www.w3.org/2001/XMLSchema-instance" xsi:noNamespaceSchemaLocation="http://sumo.dlr.de/xsd/netgenerateConfiguration.xsd">

    <random_network>
        <rand value="true"/>
        <rand.iterations value="60"/>
        <rand.grid value="true"/>
    </random_network>

    <output>
        <output-file value="D:\research project\NeurIPS\logic building\Meta-MOHRL- Antigravity code building\sumo_configs\15_topologies\topo_12_heterogeneous_mesh_E.net.xml"/>
    </output>

</netgenerateConfiguration>
-->

<net version="1.20" junctionCornerDetail="5" limitTurnSpeed="5.50" xmlns:xsi="http://www.w3.org/2001/XMLSchema-instance" xsi:noNamespaceSchemaLocation="http://sumo.dlr.de/xsd/net_file.xsd">

    <location netOffset="1000.00,600.00" convBoundary="0.00,0.00,1500.00,1300.00" origBoundary="-1000.00,-600.00,500.00,700.00" projParameter="!"/>

    <edge id=":1_0" function="internal">
        <lane id=":1_0_0" index="0" speed="6.51" length="9.03" shape="998.40,607.20 998.05,604.75 997.00,603.00 995.25,601.95 992.80,601.60"/>
    </edge>
    <edge id=":1_1" function="internal">
        <lane id=":1_1_0" index="0" speed="13.89" length="14.40" shape="998.40,607.20 998.40,592.80"/>
    </edge>
    <edge id=":1_2" function="internal">
        <lane id=":1_2_0" index="0" speed="8.00" length="4.07" shape="998.40,607.20 998.95,603.35 999.04,603.20"/>
    </edge>
    <edge id=":1_3" function="internal">
        <lane id=":1_3_0" index="0" speed="3.65" length="1.44" shape="998.40,607.20 999.20,606.00"/>
    </edge>
    <edge id=":1_16" function="internal">
        <lane id=":1_16_0" index="0" speed="8.00" length="10.13" shape="999.04,603.20 1000.60,600.60 1003.35,598.95 1007.20,598.40"/>
    </edge>
    <edge id=":1_17" function="internal">
        <lane id=":1_17_0" index="0" speed="3.65" length="3.23" shape="999.20,606.00 1000.00,605.60 1000.80,606.00 1001.60,607.20"/>
    </edge>
    <edge id=":1_4" function="internal">
        <lane id=":1_4_0" index="0" speed="6.51" length="9.03" shape="1007.20,601.60 1004.75,601.95 1003.00,603.00 1001.95,604.75 1001.60,607.20"/>
    </edge>
    <edge id=":1_5" function="internal">
        <lane id=":1_5_0" index="0" speed="13.89" length="14.40" shape="1007.20,601.60 992.80,601.60"/>
    </edge>
    <edge id=":1_6" function="internal">
        <lane id=":1_6_0" index="0" speed="8.00" length="14.19" shape="1007.20,601.60 1003.35,601.05 1000.60,599.40 998.95,596.65 998.40,592.80"/>
    </edge>
    <edge id=":1_7" function="internal">
        <lane id=":1_7_0" index="0" speed="3.65" length="4.67" shape="1007.20,601.60 1006.00,600.80 1005.60,600.00 1006.00,599.20 1007.20,598.40"/>
    </edge>
    <edge id=":1_8" function="internal">
        <lane id=":1_8_0" index="0" speed="6.51" length="9.03" shape="1001.60,592.80 1001.95,595.25 1003.00,597.00 1004.75,598.05 1007.20,598.40"/>
    </edge>
    <edge id=":1_9" function="internal">
        <lane id=":1_9_0" index="0" speed="13.89" length="14.40" shape="1001.60,592.80 1001.60,607.20"/>
    </edge>
    <edge id=":1_10" function="internal">
        <lane id=":1_10_0" index="0" speed="8.00" length="4.07" shape="1001.60,592.80 1001.05,596.65 1000.96,596.80"/>
    </edge>
    <edge id=":1_11" function="internal">
        <lane id=":1_11_0" index="0" speed="3.65" length="1.44" shape="1001.60,592.80 1000.80,594.00"/>
    </edge>
    <edge id=":1_18" function="internal">
        <lane id=":1_18_0" index="0" speed="8.00" length="10.13" shape="1000.96,596.80 999.40,599.40 996.65,601.05 992.80,601.60"/>
    </edge>
    <edge id=":1_19" function="internal">
        <lane id=":1_19_0" index="0" speed="3.65" length="3.23" shape="1000.80,594.00 1000.00,594.40 999.20,594.00 998.40,592.80"/>
    </edge>
    <edge id=":1_12" function="internal">
        <lane id=":1_12_0" index="0" speed="6.51" length="9.03" shape="992.80,598.40 995.25,598.05 997.00,597.00 998.05,595.25 998.40,592.80"/>
    </edge>
    <edge id=":1_13" function="internal">
        <lane id=":1_13_0" index="0" speed="13.89" length="14.40" shape="992.80,598.40 1007.20,598.40"/>
    </edge>
    <edge id=":1_14" function="internal">
        <lane id=":1_14_0" index="0" speed="8.00" length="14.19" shape="992.80,598.40 996.65,598.95 999.40,600.60 1001.05,603.35 1001.60,607.20"/>
    </edge>
    <edge id=":1_15" function="internal">
        <lane id=":1_15_0" index="0" speed="3.65" length="4.67" shape="992.80,598.40 994.00,599.20 994.40,600.00 994.00,600.80 992.80,601.60"/>
    </edge>
    <edge id=":10_0" function="internal">
        <lane id=":10_0_0" index="0" speed="6.51" length="9.03" shape="898.40,607.20 898.05,604.75 897.00,603.00 895.25,601.95 892.80,601.60"/>
    </edge>
    <edge id=":10_1" function="internal">
        <lane id=":10_1_0" index="0" speed="8.00" length="14.19" shape="898.40,607.20 898.95,603.35 900.60,600.60 903.35,598.95 907.20,598.40"/>
    </edge>
    <edge id=":10_2" function="internal">
        <lane id=":10_2_0" index="0" speed="3.65" length="4.67" shape="898.40,607.20 899.20,606.00 900.00,605.60 900.80,606.00 901.60,607.20"/>
    </edge>
    <edge id=":10_3" function="internal">
        <lane id=":10_3_0" index="0" speed="6.51" length="9.03" shape="907.20,601.60 904.75,601.95 903.00,603.00 901.95,604.75 901.60,607.20"/>
    </edge>
    <edge id=":10_4" function="internal">
        <lane id=":10_4_0" index="0" speed="13.89" length="14.40" shape="907.20,601.60 892.80,601.60"/>
    </edge>
    <edge id=":10_5" function="internal">
        <lane id=":10_5_0" index="0" speed="3.65" length="1.44" shape="907.20,601.60 906.00,600.80"/>
    </edge>
    <edge id=":10_9" function="internal">
        <lane id=":10_9_0" index="0" speed="3.65" length="3.23" shape="906.00,600.80 905.60,600.00 906.00,599.20 907.20,598.40"/>
    </edge>
    <edge id=":10_6" function="internal">
        <lane id=":10_6_0" index="0" speed="13.89" length="14.40" shape="892.80,598.40 907.20,598.40"/>
    </edge>
    <edge id=":10_7" function="internal">
        <lane id=":10_7_0" index="0" speed="8.00" length="4.07" shape="892.80,598.40 896.65,598.95 896.80,599.04"/>
    </edge>
    <edge id=":10_8" function="internal">
        <lane id=":10_8_0" index="0" speed="3.65" length="1.44" shape="892.80,598.40 894.00,599.20"/>
    </edge>
    <edge id=":10_10" function="internal">
        <lane id=":10_10_0" index="0" speed="8.00" length="10.13" shape="896.80,599.04 899.40,600.60 901.05,603.35 901.60,607.20"/>
    </edge>
    <edge id=":10_11" function="internal">
        <lane id=":10_11_0" index="0" speed="3.65" length="3.23" shape="894.00,599.20 894.40,600.00 894.00,600.80 892.80,601.60"/>
    </edge>
    <edge id=":1001_0" function="internal">
        <lane id=":1001_0_0" index="0" speed="7.65" length="12.89" shape="207.16,409.42 203.78,406.54 200.80,405.04 198.22,404.94 196.04,406.22"/>
    </edge>
    <edge id=":1001_1" function="internal">
        <lane id=":1001_1_0" index="0" speed="7.42" length="19.31" shape="207.16,409.42 203.31,404.60 202.79,401.16 205.59,399.09 211.73,398.40"/>
    </edge>
    <edge id=":1001_2" function="internal">
        <lane id=":1001_2_0" index="0" speed="3.65" length="4.67" shape="207.16,409.42 206.88,408.01 207.16,407.16 208.01,406.88 209.42,407.16"/>
    </edge>
    <edge id=":1001_3" function="internal">
        <lane id=":1001_3_0" index="0" speed="5.47" length="9.74" shape="211.73,401.60 208.63,401.95 207.22,402.99 207.48,404.73 209.42,407.16"/>
    </edge>
    <edge id=":1001_4" function="internal">
        <lane id=":1001_4_0" index="0" speed="13.42" length="16.74" shape="211.73,401.60 206.60,401.89 202.27,402.76 198.75,404.20 196.04,406.22"/>
    </edge>
    <edge id=":1001_5" function="internal">
        <lane id=":1001_5_0" index="0" speed="3.65" length="1.44" shape="211.73,401.60 210.53,400.80"/>
    </edge>
    <edge id=":1001_9" function="internal">
        <lane id=":1001_9_0" index="0" speed="3.65" length="3.23" shape="210.53,400.80 210.13,400.00 210.53,399.20 211.73,398.40"/>
    </edge>
    <edge id=":1001_6" function="internal">
        <lane id=":1001_6_0" index="0" speed="13.89" length="19.24" shape="193.78,403.96 196.98,401.53 201.04,399.79 205.96,398.75 211.73,398.40"/>
    </edge>
    <edge id=":1001_7" function="internal">
        <lane id=":1001_7_0" index="0" speed="8.94" length="4.59" shape="193.78,403.96 197.09,401.83 197.74,401.80"/>
    </edge>
    <edge id=":1001_8" function="internal">
        <lane id=":1001_8_0" index="0" speed="3.65" length="1.44" shape="193.78,403.96 195.19,403.68"/>
    </edge>
    <edge id=":1001_10" function="internal">
        <lane id=":1001_10_0" index="0" speed="8.94" length="13.40" shape="197.74,401.80 200.80,401.65 204.91,403.43 209.42,407.16"/>
    </edge>
    <edge id=":1001_11" function="internal">
        <lane id=":1001_11_0" index="0" speed="3.65" length="3.23" shape="195.19,403.68 196.04,403.96 196.32,404.81 196.04,406.22"/>
    </edge>
    <edge id=":1003_0" function="internal">
        <lane id=":1003_0_0" index="0" speed="6.49" length="14.35" shape="398.40,307.73 398.91,303.17 400.45,301.08 403.01,301.47 406.59,304.33"/>
    </edge>
    <edge id=":1003_1" function="internal">
        <lane id=":1003_1_0" index="0" speed="4.12" length="4.78" shape="404.33,306.59 403.14,305.64 402.28,305.51 401.77,306.21 401.60,307.73"/>
    </edge>
    <edge id=":1024_0" function="internal">
        <lane id=":1024_0_0" index="0" speed="6.51" length="9.03" shape="298.40,907.20 298.05,904.75 297.00,903.00 295.25,901.95 292.80,901.60"/>
    </edge>
    <edge id=":1024_1" function="internal">
        <lane id=":1024_1_0" index="0" speed="13.89" length="14.40" shape="298.40,907.20 298.40,892.80"/>
    </edge>
    <edge id=":1024_2" function="internal">
        <lane id=":1024_2_0" index="0" speed="8.00" length="4.07" shape="298.40,907.20 298.95,903.35 299.04,903.20"/>
    </edge>
    <edge id=":1024_3" function="internal">
        <lane id=":1024_3_0" index="0" speed="3.65" length="1.44" shape="298.40,907.20 299.20,906.00"/>
    </edge>
    <edge id=":1024_16" function="internal">
        <lane id=":1024_16_0" index="0" speed="8.00" length="10.13" shape="299.04,903.20 300.60,900.60 303.35,898.95 307.20,898.40"/>
    </edge>
    <edge id=":1024_17" function="internal">
        <lane id=":1024_17_0" index="0" speed="3.65" length="3.23" shape="299.20,906.00 300.00,905.60 300.80,906.00 301.60,907.20"/>
    </edge>
    <edge id=":1024_4" function="internal">
        <lane id=":1024_4_0" index="0" speed="6.51" length="9.03" shape="307.20,901.60 304.75,901.95 303.00,903.00 301.95,904.75 301.60,907.20"/>
    </edge>
    <edge id=":1024_5" function="internal">
        <lane id=":1024_5_0" index="0" speed="13.89" length="14.40" shape="307.20,901.60 292.80,901.60"/>
    </edge>
    <edge id=":1024_6" function="internal">
        <lane id=":1024_6_0" index="0" speed="8.00" length="14.19" shape="307.20,901.60 303.35,901.05 300.60,899.40 298.95,896.65 298.40,892.80"/>
    </edge>
    <edge id=":1024_7" function="internal">
        <lane id=":1024_7_0" index="0" speed="3.65" length="4.67" shape="307.20,901.60 306.00,900.80 305.60,900.00 306.00,899.20 307.20,898.40"/>
    </edge>
    <edge id=":1024_8" function="internal">
        <lane id=":1024_8_0" index="0" speed="6.51" length="9.03" shape="301.60,892.80 301.95,895.25 303.00,897.00 304.75,898.05 307.20,898.40"/>
    </edge>
    <edge id=":1024_9" function="internal">
        <lane id=":1024_9_0" index="0" speed="13.89" length="14.40" shape="301.60,892.80 301.60,907.20"/>
    </edge>
    <edge id=":1024_10" function="internal">
        <lane id=":1024_10_0" index="0" speed="8.00" length="4.07" shape="301.60,892.80 301.05,896.65 300.96,896.80"/>
    </edge>
    <edge id=":1024_11" function="internal">
        <lane id=":1024_11_0" index="0" speed="3.65" length="1.44" shape="301.60,892.80 300.80,894.00"/>
    </edge>
    <edge id=":1024_18" function="internal">
        <lane id=":1024_18_0" index="0" speed="8.00" length="10.13" shape="300.96,896.80 299.40,899.40 296.65,901.05 292.80,901.60"/>
    </edge>
    <edge id=":1024_19" function="internal">
        <lane id=":1024_19_0" index="0" speed="3.65" length="3.23" shape="300.80,894.00 300.00,894.40 299.20,894.00 298.40,892.80"/>
    </edge>
    <edge id=":1024_12" function="internal">
        <lane id=":1024_12_0" index="0" speed="6.51" length="9.03" shape="292.80,898.40 295.25,898.05 297.00,897.00 298.05,895.25 298.40,892.80"/>
    </edge>
    <edge id=":1024_13" function="internal">
        <lane id=":1024_13_0" index="0" speed="13.89" length="14.40" shape="292.80,898.40 307.20,898.40"/>
    </edge>
    <edge id=":1024_14" function="internal">
        <lane id=":1024_14_0" index="0" speed="8.00" length="14.19" shape="292.80,898.40 296.65,898.95 299.40,900.60 301.05,903.35 301.60,907.20"/>
    </edge>
    <edge id=":1024_15" function="internal">
        <lane id=":1024_15_0" index="0" speed="3.65" length="4.67" shape="292.80,898.40 294.00,899.20 294.40,900.00 294.00,900.80 292.80,901.60"/>
    </edge>
    <edge id=":1033_0" function="internal">
        <lane id=":1033_0_0" index="0" speed="3.65" length="4.67" shape="600.00,398.40 601.20,399.20 601.60,400.00 601.20,400.80 600.00,401.60"/>
    </edge>
    <edge id=":108_0" function="internal">
        <lane id=":108_0_0" index="0" speed="7.65" length="12.89" shape="898.40,711.73 898.05,707.30 897.00,704.13 895.25,702.23 892.80,701.60"/>
    </edge>
    <edge id=":108_1" function="internal">
        <lane id=":108_1_0" index="0" speed="13.89" length="18.93" shape="898.40,711.73 898.40,692.80"/>
    </edge>
    <edge id=":108_2" function="internal">
        <lane id=":108_2_0" index="0" speed="7.42" length="6.00" shape="898.40,711.73 899.07,705.76"/>
    </edge>
    <edge id=":108_3" function="internal">
        <lane id=":108_3_0" index="0" speed="3.65" length="1.44" shape="898.40,711.73 899.20,710.53"/>
    </edge>
    <edge id=":108_16" function="internal">
        <lane id=":108_16_0" index="0" speed="7.42" length="13.30" shape="899.07,705.76 899.09,705.59 901.16,702.79 904.60,703.31 909.42,707.16"/>
    </edge>
    <edge id=":108_17" function="internal">
        <lane id=":108_17_0" index="0" speed="3.65" length="3.23" shape="899.20,710.53 900.00,710.13 900.80,710.53 901.60,711.73"/>
    </edge>
    <edge id=":108_4" function="internal">
        <lane id=":108_4_0" index="0" speed="5.47" length="9.74" shape="907.16,709.42 904.73,707.48 902.99,707.22 901.95,708.63 901.60,711.73"/>
    </edge>
    <edge id=":108_5" function="internal">
        <lane id=":108_5_0" index="0" speed="13.42" length="16.74" shape="907.16,709.42 903.33,706.00 899.66,703.56 896.15,702.09 892.80,701.60"/>
    </edge>
    <edge id=":108_6" function="internal">
        <lane id=":108_6_0" index="0" speed="13.89" length="19.06" shape="907.16,709.42 903.94,705.53 901.14,700.94 899.15,696.44 898.40,692.80"/>
    </edge>
    <edge id=":108_7" function="internal">
        <lane id=":108_7_0" index="0" speed="3.65" length="4.67" shape="907.16,709.42 906.88,708.01 907.16,707.16 908.01,706.88 909.42,707.16"/>
    </edge>
    <edge id=":108_8" function="internal">
        <lane id=":108_8_0" index="0" speed="13.42" length="16.74" shape="901.60,692.80 902.09,696.15 903.56,699.66 906.00,703.33 909.42,707.16"/>
    </edge>
    <edge id=":108_9" function="internal">
        <lane id=":108_9_0" index="0" speed="13.89" length="18.93" shape="901.60,692.80 901.60,711.73"/>
    </edge>
    <edge id=":108_10" function="internal">
        <lane id=":108_10_0" index="0" speed="8.00" length="4.07" shape="901.60,692.80 901.05,696.65 900.96,696.80"/>
    </edge>
    <edge id=":108_11" function="internal">
        <lane id=":108_11_0" index="0" speed="3.65" length="1.44" shape="901.60,692.80 900.80,694.00"/>
    </edge>
    <edge id=":108_18" function="internal">
        <lane id=":108_18_0" index="0" speed="8.00" length="10.13" shape="900.96,696.80 899.40,699.40 896.65,701.05 892.80,701.60"/>
    </edge>
    <edge id=":108_19" function="internal">
        <lane id=":108_19_0" index="0" speed="3.65" length="3.23" shape="900.80,694.00 900.00,694.40 899.20,694.00 898.40,692.80"/>
    </edge>
    <edge id=":108_12" function="internal">
        <lane id=":108_12_0" index="0" speed="6.51" length="9.03" shape="892.80,698.40 895.25,698.05 897.00,697.00 898.05,695.25 898.40,692.80"/>
    </edge>
    <edge id=":108_13" function="internal">
        <lane id=":108_13_0" index="0" speed="13.89" length="19.24" shape="892.80,698.40 896.79,698.95 900.89,700.59 905.10,703.33 909.42,707.16"/>
    </edge>
    <edge id=":108_14" function="internal">
        <lane id=":108_14_0" index="0" speed="8.71" length="17.02" shape="892.80,698.40 896.03,699.73 898.85,703.07 900.84,707.40 901.60,711.73"/>
    </edge>
    <edge id=":108_15" function="internal">
        <lane id=":108_15_0" index="0" speed="3.65" length="4.67" shape="892.80,698.40 894.00,699.20 894.40,700.00 894.00,700.80 892.80,701.60"/>
    </edge>
    <edge id=":1149_0" function="internal">
        <lane id=":1149_0_0" index="0" speed="7.65" length="12.89" shape="298.40,507.20 297.77,504.75 295.87,503.00 292.70,501.95 288.27,501.60"/>
    </edge>
    <edge id=":1149_1" function="internal">
        <lane id=":1149_1_0" index="0" speed="13.42" length="16.74" shape="298.40,507.20 297.91,503.85 296.44,500.34 294.00,496.67 290.58,492.84"/>
    </edge>
    <edge id=":1149_2" function="internal">
        <lane id=":1149_2_0" index="0" speed="3.65" length="1.31" shape="298.40,507.20 299.13,506.11"/>
    </edge>
    <edge id=":1149_9" function="internal">
        <lane id=":1149_9_0" index="0" speed="3.65" length="3.37" shape="299.13,506.11 299.20,506.00 300.00,505.60 300.80,506.00 301.60,507.20"/>
    </edge>
    <edge id=":1149_3" function="internal">
        <lane id=":1149_3_0" index="0" speed="13.89" length="19.24" shape="292.84,490.58 296.67,494.90 299.41,499.11 301.05,503.21 301.60,507.20"/>
    </edge>
    <edge id=":1149_4" function="internal">
        <lane id=":1149_4_0" index="0" speed="7.42" length="6.93" shape="292.84,490.58 296.69,495.40 296.80,496.15"/>
    </edge>
    <edge id=":1149_5" function="internal">
        <lane id=":1149_5_0" index="0" speed="3.65" length="1.44" shape="292.84,490.58 293.12,491.99"/>
    </edge>
    <edge id=":1149_10" function="internal">
        <lane id=":1149_10_0" index="0" speed="7.42" length="12.37" shape="296.80,496.15 297.21,498.84 294.41,500.91 288.27,501.60"/>
    </edge>
    <edge id=":1149_11" function="internal">
        <lane id=":1149_11_0" index="0" speed="3.65" length="3.23" shape="293.12,491.99 292.84,492.84 291.99,493.12 290.58,492.84"/>
    </edge>
    <edge id=":1149_6" function="internal">
        <lane id=":1149_6_0" index="0" speed="5.47" length="9.74" shape="288.27,498.40 291.37,498.05 292.78,497.01 292.52,495.27 290.58,492.84"/>
    </edge>
    <edge id=":1149_7" function="internal">
        <lane id=":1149_7_0" index="0" speed="8.94" length="17.99" shape="288.27,498.40 294.10,498.95 298.27,500.60 300.77,503.35 301.60,507.20"/>
    </edge>
    <edge id=":1149_8" function="internal">
        <lane id=":1149_8_0" index="0" speed="3.65" length="4.67" shape="288.27,498.40 289.47,499.20 289.87,500.00 289.47,500.80 288.27,501.60"/>
    </edge>
    <edge id=":1153_0" function="internal">
        <lane id=":1153_0_0" index="0" speed="13.89" length="18.93" shape="198.40,911.73 198.40,892.80"/>
    </edge>
    <edge id=":1153_1" function="internal">
        <lane id=":1153_1_0" index="0" speed="9.73" length="5.01" shape="198.40,911.73 199.11,906.76"/>
    </edge>
    <edge id=":1153_2" function="internal">
        <lane id=":1153_2_0" index="0" speed="7.42" length="6.00" shape="198.40,911.73 199.07,905.76"/>
    </edge>
    <edge id=":1153_3" function="internal">
        <lane id=":1153_3_0" index="0" speed="3.65" length="1.44" shape="198.40,911.73 199.20,910.53"/>
    </edge>
    <edge id=":1153_16" function="internal">
        <lane id=":1153_16_0" index="0" speed="9.73" length="16.48" shape="199.11,906.76 199.23,905.90 201.73,901.73 205.90,899.23 211.73,898.40"/>
    </edge>
    <edge id=":1153_17" function="internal">
        <lane id=":1153_17_0" index="0" speed="7.42" length="13.30" shape="199.07,905.76 199.09,905.59 201.16,902.79 204.60,903.31 209.42,907.16"/>
    </edge>
    <edge id=":1153_18" function="internal">
        <lane id=":1153_18_0" index="0" speed="3.65" length="3.23" shape="199.20,910.53 200.00,910.13 200.80,910.53 201.60,911.73"/>
    </edge>
    <edge id=":1153_4" function="internal">
        <lane id=":1153_4_0" index="0" speed="5.47" length="9.74" shape="207.16,909.42 204.73,907.48 202.99,907.22 201.95,908.63 201.60,911.73"/>
    </edge>
    <edge id=":1153_5" function="internal">
        <lane id=":1153_5_0" index="0" speed="13.89" length="19.09" shape="207.16,909.42 204.30,906.04 201.45,901.66 199.27,897.01 198.40,892.80"/>
    </edge>
    <edge id=":1153_6" function="internal">
        <lane id=":1153_6_0" index="0" speed="7.42" length="19.31" shape="207.16,909.42 203.31,904.60 202.79,901.16 205.59,899.09 211.73,898.40"/>
    </edge>
    <edge id=":1153_7" function="internal">
        <lane id=":1153_7_0" index="0" speed="3.65" length="4.67" shape="207.16,909.42 206.88,908.01 207.16,907.16 208.01,906.88 209.42,907.16"/>
    </edge>
    <edge id=":1153_8" function="internal">
        <lane id=":1153_8_0" index="0" speed="5.47" length="9.74" shape="211.73,901.60 208.63,901.95 207.22,902.99 207.48,904.73 209.42,907.16"/>
    </edge>
    <edge id=":1153_9" function="internal">
        <lane id=":1153_9_0" index="0" speed="8.54" length="16.33" shape="211.73,901.60 207.30,902.23 204.13,904.13 202.23,907.30 201.60,911.73"/>
    </edge>
    <edge id=":1153_10" function="internal">
        <lane id=":1153_10_0" index="0" speed="8.94" length="17.99" shape="211.73,901.60 205.90,901.05 201.73,899.40 199.23,896.65 198.40,892.80"/>
    </edge>
    <edge id=":1153_11" function="internal">
        <lane id=":1153_11_0" index="0" speed="3.65" length="4.67" shape="211.73,901.60 210.53,900.80 210.13,900.00 210.53,899.20 211.73,898.40"/>
    </edge>
    <edge id=":1153_12" function="internal">
        <lane id=":1153_12_0" index="0" speed="7.65" length="12.89" shape="201.60,892.80 202.23,895.25 204.13,897.00 207.30,898.05 211.73,898.40"/>
    </edge>
    <edge id=":1153_13" function="internal">
        <lane id=":1153_13_0" index="0" speed="13.42" length="16.74" shape="201.60,892.80 202.09,896.15 203.56,899.66 206.00,903.33 209.42,907.16"/>
    </edge>
    <edge id=":1153_14" function="internal">
        <lane id=":1153_14_0" index="0" speed="13.89" length="18.93" shape="201.60,892.80 201.60,911.73"/>
    </edge>
    <edge id=":1153_15" function="internal">
        <lane id=":1153_15_0" index="0" speed="3.65" length="1.44" shape="201.60,892.80 200.80,894.00"/>
    </edge>
    <edge id=":1153_19" function="internal">
        <lane id=":1153_19_0" index="0" speed="3.65" length="3.23" shape="200.80,894.00 200.00,894.40 199.20,894.00 198.40,892.80"/>
    </edge>
    <edge id=":1167_0" function="internal">
        <lane id=":1167_0_0" index="0" speed="5.47" length="9.74" shape="298.40,1011.73 298.05,1008.63 297.01,1007.22 295.27,1007.48 292.84,1009.42"/>
    </edge>
    <edge id=":1167_1" function="internal">
        <lane id=":1167_1_0" index="0" speed="13.89" length="20.72" shape="298.40,1011.73 297.67,1007.16 295.81,1001.73 293.29,996.58 290.58,992.84"/>
    </edge>
    <edge id=":1167_2" function="internal">
        <lane id=":1167_2_0" index="0" speed="13.89" length="23.45" shape="298.40,1011.73 298.40,988.27"/>
    </edge>
    <edge id=":1167_3" function="internal">
        <lane id=":1167_3_0" index="0" speed="3.65" length="1.44" shape="298.40,1011.73 299.20,1010.53"/>
    </edge>
    <edge id=":1167_16" function="internal">
        <lane id=":1167_16_0" index="0" speed="3.65" length="3.23" shape="299.20,1010.53 300.00,1010.13 300.80,1010.53 301.60,1011.73"/>
    </edge>
    <edge id=":1167_4" function="internal">
        <lane id=":1167_4_0" index="0" speed="13.89" length="23.45" shape="301.60,988.27 301.60,1011.73"/>
    </edge>
    <edge id=":1167_5" function="internal">
        <lane id=":1167_5_0" index="0" speed="13.89" length="6.48" shape="301.60,988.27 301.05,994.24 300.91,994.71"/>
    </edge>
    <edge id=":1167_6" function="internal">
        <lane id=":1167_6_0" index="0" speed="7.42" length="6.00" shape="301.60,988.27 300.93,994.24"/>
    </edge>
    <edge id=":1167_7" function="internal">
        <lane id=":1167_7_0" index="0" speed="3.65" length="1.44" shape="301.60,988.27 300.80,989.47"/>
    </edge>
    <edge id=":1167_17" function="internal">
        <lane id=":1167_17_0" index="0" speed="13.89" length="17.01" shape="300.91,994.71 299.41,999.76 296.67,1004.82 292.84,1009.42"/>
    </edge>
    <edge id=":1167_18" function="internal">
        <lane id=":1167_18_0" index="0" speed="7.42" length="13.30" shape="300.93,994.24 300.91,994.41 298.84,997.21 295.40,996.69 290.58,992.84"/>
    </edge>
    <edge id=":1167_19" function="internal">
        <lane id=":1167_19_0" index="0" speed="3.65" length="3.23" shape="300.80,989.47 300.00,989.87 299.20,989.47 298.40,988.27"/>
    </edge>
    <edge id=":1167_8" function="internal">
        <lane id=":1167_8_0" index="0" speed="5.47" length="9.74" shape="292.84,990.58 295.27,992.52 297.01,992.78 298.05,991.37 298.40,988.27"/>
    </edge>
    <edge id=":1167_9" function="internal">
        <lane id=":1167_9_0" index="0" speed="13.89" length="23.49" shape="292.84,990.58 296.67,995.18 299.41,1000.24 301.05,1005.76 301.60,1011.73"/>
    </edge>
    <edge id=":1167_10" function="internal">
        <lane id=":1167_10_0" index="0" speed="9.73" length="21.49" shape="292.84,990.58 296.37,995.29 297.55,1000.00 296.37,1004.71 292.84,1009.42"/>
    </edge>
    <edge id=":1167_11" function="internal">
        <lane id=":1167_11_0" index="0" speed="3.65" length="4.67" shape="292.84,990.58 293.12,991.99 292.84,992.84 291.99,993.12 290.58,992.84"/>
    </edge>
    <edge id=":1167_12" function="internal">
        <lane id=":1167_12_0" index="0" speed="8.54" length="16.33" shape="290.58,1007.16 293.26,1003.58 294.16,1000.00 293.26,996.42 290.58,992.84"/>
    </edge>
    <edge id=":1167_13" function="internal">
        <lane id=":1167_13_0" index="0" speed="13.89" length="20.98" shape="290.58,1007.16 294.00,1003.05 296.44,998.53 297.91,993.60 298.40,988.27"/>
    </edge>
    <edge id=":1167_14" function="internal">
        <lane id=":1167_14_0" index="0" speed="7.42" length="19.31" shape="290.58,1007.16 295.40,1003.31 298.84,1002.79 300.91,1005.59 301.60,1011.73"/>
    </edge>
    <edge id=":1167_15" function="internal">
        <lane id=":1167_15_0" index="0" speed="3.65" length="4.67" shape="290.58,1007.16 291.99,1006.88 292.84,1007.16 293.12,1008.01 292.84,1009.42"/>
    </edge>
    <edge id=":1177_0" function="internal">
        <lane id=":1177_0_0" index="0" speed="6.51" length="9.03" shape="1398.40,107.20 1398.05,104.75 1397.00,103.00 1395.25,101.95 1392.80,101.60"/>
    </edge>
    <edge id=":1177_1" function="internal">
        <lane id=":1177_1_0" index="0" speed="13.89" length="14.40" shape="1398.40,107.20 1398.40,92.80"/>
    </edge>
    <edge id=":1177_2" function="internal">
        <lane id=":1177_2_0" index="0" speed="8.00" length="4.07" shape="1398.40,107.20 1398.95,103.35 1399.04,103.20"/>
    </edge>
    <edge id=":1177_3" function="internal">
        <lane id=":1177_3_0" index="0" speed="3.65" length="1.44" shape="1398.40,107.20 1399.20,106.00"/>
    </edge>
    <edge id=":1177_16" function="internal">
        <lane id=":1177_16_0" index="0" speed="8.00" length="10.13" shape="1399.04,103.20 1400.60,100.60 1403.35,98.95 1407.20,98.40"/>
    </edge>
    <edge id=":1177_17" function="internal">
        <lane id=":1177_17_0" index="0" speed="3.65" length="3.23" shape="1399.20,106.00 1400.00,105.60 1400.80,106.00 1401.60,107.20"/>
    </edge>
    <edge id=":1177_4" function="internal">
        <lane id=":1177_4_0" index="0" speed="6.51" length="9.03" shape="1407.20,101.60 1404.75,101.95 1403.00,103.00 1401.95,104.75 1401.60,107.20"/>
    </edge>
    <edge id=":1177_5" function="internal">
        <lane id=":1177_5_0" index="0" speed="13.89" length="14.40" shape="1407.20,101.60 1392.80,101.60"/>
    </edge>
    <edge id=":1177_6" function="internal">
        <lane id=":1177_6_0" index="0" speed="8.00" length="14.19" shape="1407.20,101.60 1403.35,101.05 1400.60,99.40 1398.95,96.65 1398.40,92.80"/>
    </edge>
    <edge id=":1177_7" function="internal">
        <lane id=":1177_7_0" index="0" speed="3.65" length="4.67" shape="1407.20,101.60 1406.00,100.80 1405.60,100.00 1406.00,99.20 1407.20,98.40"/>
    </edge>
    <edge id=":1177_8" function="internal">
        <lane id=":1177_8_0" index="0" speed="6.51" length="9.03" shape="1401.60,92.80 1401.95,95.25 1403.00,97.00 1404.75,98.05 1407.20,98.40"/>
    </edge>
    <edge id=":1177_9" function="internal">
        <lane id=":1177_9_0" index="0" speed="13.89" length="14.40" shape="1401.60,92.80 1401.60,107.20"/>
    </edge>
    <edge id=":1177_10" function="internal">
        <lane id=":1177_10_0" index="0" speed="8.00" length="4.07" shape="1401.60,92.80 1401.05,96.65 1400.96,96.80"/>
    </edge>
    <edge id=":1177_11" function="internal">
        <lane id=":1177_11_0" index="0" speed="3.65" length="1.44" shape="1401.60,92.80 1400.80,94.00"/>
    </edge>
    <edge id=":1177_18" function="internal">
        <lane id=":1177_18_0" index="0" speed="8.00" length="10.13" shape="1400.96,96.80 1399.40,99.40 1396.65,101.05 1392.80,101.60"/>
    </edge>
    <edge id=":1177_19" function="internal">