<?xml version="1.0" encoding="UTF-8"?>

<!-- generated on 2026-04-16 17:52:41.766154 by Eclipse SUMO randomTrips.py v1_26_0+0000-fa7df22d7f1
<configuration>
    <net-file value="D:\research project\NeurIPS\logic building\Meta-MOHRL- Antigravity code building\sumo_configs\15_topologies\topo_12_heterogeneous_mesh_E.net.xml"/>
    <output-trip-file value="D:\research project\NeurIPS\logic building\Meta-MOHRL- Antigravity code building\sumo_configs\15_topologies\topo_12_heterogeneous_mesh_E_trips.xml"/>
    <route-file value="D:\research project\NeurIPS\logic building\Meta-MOHRL- Antigravity code building\sumo_configs\15_topologies\topo_12_heterogeneous_mesh_E.rou.xml"/>
    <end value="1000.0"/>
    <period value="0.7"/>
</configuration>
-->

<!-- generated on 2026-04-16T17:52:41.643062-08:00 by Eclipse SUMO duarouter 1.26.0
<duarouterConfiguration xmlns:xsi="http://www.w3.org/2001/XMLSchema-instance" xsi:noNamespaceSchemaLocation="http://sumo.dlr.de/xsd/duarouterConfiguration.xsd">

    <input>
        <net-file value="D:\research project\NeurIPS\logic building\Meta-MOHRL- Antigravity code building\sumo_configs\15_topologies\topo_12_heterogeneous_mesh_E.net.xml"/>
        <route-files value="D:\research project\NeurIPS\logic building\Meta-MOHRL- Antigravity code building\sumo_configs\15_topologies\topo_12_heterogeneous_mesh_E_trips.xml"/>
    </input>

    <output>
        <output-file value="D:\research project\NeurIPS\logic building\Meta-MOHRL- Antigravity code building\sumo_configs\15_topologies\topo_12_heterogeneous_mesh_E.rou.xml"/>
        <alternatives-output value="NUL"/>
    </output>

    <time>
        <begin value="0.0"/>
        <end value="1000.0"/>
    </time>

    <report>
        <no-warnings value="true"/>
        <ignore-errors value="true"/>
        <no-step-log value="true"/>
    </report>

</duarouterConfiguration>
-->

<routes xmlns:xsi="http://www.w3.org/2001/XMLSchema-instance" xsi:noNamespaceSchemaLocation="http://sumo.dlr.de/xsd/routes_file.xsd">
    <vehicle id="0" depart="0.00">
        <route edges="1212 -1212 -1168 -1025 -879 -852 854 1004 -1026"/>
    </vehicle>
    <vehicle id="1" depart="0.70">
        <route edges="-199 68 592 -58 60 92 214 -219 -190"/>
    </vehicle>
    <vehicle id="2" depart="1.40">
        <route edges="162 -152 152"/>
    </vehicle>
    <vehicle id="3" depart="2.10">
        <route edges="588 -5 11 109 -120"/>
    </vehicle>
    <vehicle id="4" depart="2.80">
        <route edges="-592 -45 -27 -3 11 109 -109"/>
    </vehicle>
    <vehicle id="5" depart="3.50">
        <route edges="-1604 -1257 -1178 -338 -199 68 592 -58 60 79 -844 854 1000 1034"/>
    </vehicle>
    <vehicle id="6" depart="4.20">
        <route edges="-1026 -1000 -854 844 -79 -60 58 -592 -68 199 338 -1606"/>
    </vehicle>
    <vehicle id="7" depart="4.90">
        <route edges="1242 -1242 -1168 -1025 -991 -214 -92 -60 58 -592 -68 199 338 1178"/>
    </vehicle>
    <vehicle id="8" depart="5.60">
        <route edges="-1604 -1257 -1178 -338 -199 68 592 -58 60 92 214 991 1025 1154 1211"/>
    </vehicle>
    <vehicle id="9" depart="6.30">
        <route edges="3 27 45 592 -58 60 79 -844 854 1002 -1002"/>
    </vehicle>
    <vehicle id="10" depart="7.00">
        <route edges="27 55 202 340 -1249 1259 1606"/>
    </vehicle>
    <vehicle id="11" depart="7.70">
        <route edges="-338 -202 71 -3 15 -144"/>
    </vehicle>
    <vehicle id="12" depart="8.40">
        <route edges="844 -79 -60 -31 -23 -11 5 -5"/>
    </vehicle>
    <vehicle id="13" depart="9.10">
        <route edges="-120 -75 92 214 991 1025 1168 -1205"/>
    </vehicle>
    <vehicle id="14" depart="9.80">
        <route edges="43 68 592 -58 60 92 214 991 1025 1168 1242"/>
    </vehicle>
    <vehicle id="15" depart="10.50">
        <route edges="3 -3 15 -144 148 172"/>
    </vehicle>
    <vehicle id="16" depart="11.20">
        <route edges="1002 -1194 -1150 -873 -865 865"/>
    </vehicle>
    <vehicle id="17" depart="11.90">
        <route edges="-462 -206 -588 -334 338 1186"/>
    </vehicle>
    <vehicle id="18" depart="12.60">
        <route edges="338 1178 1257"/>
    </vehicle>
    <vehicle id="19" depart="13.30">
        <route edges="5 -5 11 23 31 60 92 214 991 1025 1154 1205"/>
    </vehicle>
    <vehicle id="20" depart="14.00">
        <route edges="15 -144 148 172 190 219 991 1025 -1148"/>
    </vehicle>
    <vehicle id="21" depart="14.70">
        <route edges="-1606 -1259 1249 -340 -199 68 592 -58 -31"/>
    </vehicle>
    <vehicle id="22" depart="15.40">
        <route edges="-1186 -338 -202 71 -3 15 -144 148 172 190 229 583 -196"/>
    </vehicle>
    <vehicle id="23" depart="16.10">
        <route edges="-1205 -1154 -1025 -991 -214 -92 -60 58 -592 -45 -27"/>
    </vehicle>
    <vehicle id="24" depart="16.80">
        <route edges="1211 -1212 -1168 -1025 -991 -214 -92 -60 -31 -23 -11 5 -588"/>
    </vehicle>
    <vehicle id="25" depart="17.50">
        <route edges="-45 -27 -3 15 -144 152 -162"/>
    </vehicle>
    <vehicle id="26" depart="18.20">
        <route edges="-190 -172 164 -162 -75 79"/>
    </vehicle>
    <vehicle id="27" depart="18.90">
        <route edges="123 -15 3 -71 202 338 1178 1249"/>
    </vehicle>
    <vehicle id="28" depart="19.60">
        <route edges="-1470 1470 -1002 -854 844 -79 75 162 -164 172"/>
    </vehicle>
    <vehicle id="29" depart="20.30">
        <route edges="-144 152 -162 -75 -60"/>
    </vehicle>
    <vehicle id="30" depart="21.00">
        <route edges="92 865 873 1150 1204 1469"/>
    </vehicle>
    <vehicle id="31" depart="21.70">
        <route edges="109 131 148 172 190 219 991 1025 1168 1242 1597"/>
    </vehicle>
    <vehicle id="32" depart="22.40">
        <route edges="43 -43 -27 -3 15 -144 148 172 190 219"/>
    </vehicle>
    <vehicle id="33" depart="23.10">
        <route edges="-1610 -1186 -338 -202 71 -3 11 109 -109"/>
    </vehicle>
    <vehicle id="34" depart="23.80">
        <route edges="-23 109 131 148 172 196 -583 -229"/>
    </vehicle>
    <vehicle id="35" depart="24.50">
        <route edges="-1597 -1242 -1168 -1025 -879 -852 -831 827"/>
    </vehicle>
    <vehicle id="36" depart="25.20">
        <route edges="58 -37"/>
    </vehicle>
    <vehicle id="37" depart="25.90">
        <route edges="1249 -340 -202 -55 45 -68"/>
    </vehicle>
    <vehicle id="38" depart="26.60">
        <route edges="64 -75 92 214 991 -879"/>
    </vehicle>
    <vehicle id="39" depart="27.30">
        <route edges="-190 -172 -148 144 -15 5 206 -206"/>
    </vehicle>
    <vehicle id="40" depart="28.00">
        <route edges="109 -120 -75 92 214 -219"/>
    </vehicle>
    <vehicle id="41" depart="28.70">
        <route edges="1154 -1154 -1025 -991 -214 -92 -60 58 -592 592"/>
    </vehicle>
    <vehicle id="42" depart="29.40">
        <route edges="-58 64 162 -164 172 -172"/>
    </vehicle>
    <vehicle id="43" depart="30.10">
        <route edges="991 -879 -852 844 -79 -60 -31 -23 109"/>
    </vehicle>
    <vehicle id="44" depart="30.80">
        <route edges="-120 -75 79 -844 854 1002 -1194 -1150"/>
    </vehicle>
    <vehicle id="45" depart="31.50">
        <route edges="-1209 -1154 -1025 -991 -214 -92 75 120 131"/>
    </vehicle>
    <vehicle id="46" depart="32.20">
        <route edges="229 583 -196 -172 164 -162 -75 79 -844 -831"/>
    </vehicle>
    <vehicle id="47" depart="32.90">
        <route edges="-1154 -1025 -879 -852 -831 -612"/>
    </vehicle>
    <vehicle id="48" depart="33.60">
        <route edges="991 1025 -1148 1150"/>
    </vehicle>
    <vehicle id="49" depart="34.30">
        <route edges="865 -852 844 -79 -60 -31 -23 -11 5"/>
    </vehicle>
    <vehicle id="50" depart="35.00">
        <route edges="-1002 -854 844 -79 75 162 -164 164"/>
    </vehicle>
    <vehicle id="51" depart="35.70">
        <route edges="144 -144 148 172 190 219 991 1025 1154"/>
    </vehicle>
    <vehicle id="52" depart="36.40">
        <route edges="-190 -172 164 -162 -75 79 -844 854 1002 -1470 1469"/>
    </vehicle>
    <vehicle id="53" depart="37.10">
        <route edges="-1211 -1154 -1025 -879 -852"/>
    </vehicle>
    <vehicle id="54" depart="37.80">
        <route edges="-71 -55 45 592 -58 60 79 -844 844"/>
    </vehicle>
    <vehicle id="55" depart="38.50">
        <route edges="58 -37 -23 109 131 148 172 196 -583 -229"/>
    </vehicle>
    <vehicle id="56" depart="39.20">
        <route edges="-865 -92 75 120 123 -15"/>
    </vehicle>
    <vehicle id="57" depart="39.90">
        <route edges="64 -64 58 -592 -45 55"/>
    </vehicle>
    <vehicle id="58" depart="40.60">
        <route edges="-219 219 991 1025 -1148 1150 1204 1469"/>
    </vehicle>
    <vehicle id="59" depart="41.30">
        <route edges="120 123 -144"/>
    </vehicle>
    <vehicle id="60" depart="42.00">
        <route edges="199 -199 68 592 -58 60 92 214 991 1025 1168"/>
    </vehicle>
    <vehicle id="61" depart="42.70">
        <route edges="214 991 1025 -1148 1150"/>
    </vehicle>
    <vehicle id="62" depart="43.40">
        <route edges="-1000 -854 844 -79 -60 -31 -23 -11 5 -588 -444"/>
    </vehicle>
    <vehicle id="63" depart="44.10">
        <route edges="-1025 -991 -214 -92 -60 58 -592 -45 55 71"/>
    </vehicle>
    <vehicle id="64" depart="44.80">
        <route edges="583 -196 -172 -148 144 -15 3 27 43"/>
    </vehicle>
    <vehicle id="65" depart="45.50">
        <route edges="-229 219 991 1025 1154 -1154"/>
    </vehicle>
    <vehicle id="66" depart="46.20">
        <route edges="583 -196 -172 164 -162 -75 612 827"/>
    </vehicle>
    <vehicle id="67" depart="46.90">
        <route edges="-1194 1194 -1002 1004"/>
    </vehicle>
    <vehicle id="68" depart="47.60">
        <route edges="-1168 -1025 -991 -214 -92 -60 -31 -23 -11 5 206"/>
    </vehicle>
    <vehicle id="69" depart="48.30">
        <route edges="199 -199 68 592 -58 60 92 214 991 1025 1168 1242 -1242"/>
    </vehicle>
    <vehicle id="70" depart="49.00">
        <route edges="-831 -612 -60 58 -592 -68 199 338 1186"/>
    </vehicle>
    <vehicle id="71" depart="49.70">
        <route edges="-190 -172 164 -162 -64 58"/>
    </vehicle>
    <vehicle id="72" depart="50.40">
        <route edges="-592 592 -58 64 162 -164"/>
    </vehicle>
    <vehicle id="73" depart="51.10">
        <route edges="1004 -1026 -1000 -854 844 -79 75 162 -164 172"/>
    </vehicle>
    <vehicle id="74" depart="51.80">
        <route edges="-152 -131 -109 23 37 -37"/>
    </vehicle>
    <vehicle id="75" depart="52.50">
        <route edges="991 1025 1154 1209 -1469 1474"/>
    </vehicle>
    <vehicle id="76" depart="53.20">
        <route edges="-612 -60 -31 -23 -11 11"/>
    </vehicle>
    <vehicle id="77" depart="53.90">
        <route edges="-1212 -1168 -1025 -991 -219 -190"/>
    </vehicle>
    <vehicle id="78" depart="54.60">
        <route edges="-334 -199 68 592 -58 60 92 214 991 1025 1154 1211"/>
    </vehicle>
    <vehicle id="79" depart="55.30">
        <route edges="-1610 -1186 -338 -202 71 -3 15 -144 148 172 -172"/>
    </vehicle>
    <vehicle id="80" depart="56.00">
        <route edges="-1178 -338 -202 71 -3 11 109 131"/>
    </vehicle>
    <vehicle id="81" depart="56.70">
        <route edges="-1610 -1186 -338 -199 68 592 -58 60"/>
    </vehicle>
    <vehicle id="82" depart="57.40">
        <route edges="45 -68 199 338 1186 -1186"/>
    </vehicle>
    <vehicle id="83" depart="58.10">
        <route edges="-1614 -1186 -338 -202 71 -3 15"/>
    </vehicle>
    <vehicle id="84" depart="58.80">
        <route edges="-1597 -1242 -1168 -1025 -991 -214 -92 -60 58 -592 -68 199 340 -1249"/>
    </vehicle>
    <vehicle id="85" depart="59.50">
        <route edges="75 -64 60 79 -844 854 1002 -1194 1204"/>
    </vehicle>
    <vehicle id="86" depart="60.20">
        <route edges="-827 -612 -60 -31 -23 23"/>
    </vehicle>
    <vehicle id="87" depart="60.90">
        <route edges="3 27 45 592 -58 60 92 214 991 1025 1168 1212 -1595"/>
    </vehicle>
    <vehicle id="88" depart="61.60">
        <route edges="-1204 1194 -1002 -854 844 -844"/>
    </vehicle>
    <vehicle id="89" depart="62.30">
        <route edges="-592 592 -58 60 92 -92"/>
    </vehicle>
    <vehicle id="90" depart="63.00">
        <route edges="1606 -338 -202 71 -3 15 -144 152"/>
    </vehicle>
    <vehicle id="91" depart="63.70">
        <route edges="879 1025 1168 -1205"/>
    </vehicle>
    <vehicle id="92" depart="64.40">
        <route edges="-58 -31 -23 -11 3 -71 -55"/>
    </vehicle>
    <vehicle id="93" depart="65.10">
        <route edges="5 206 -206"/>
    </vehicle>
    <vehicle id="94" depart="65.80">
        <route edges="-1492 -1209 -1154 -1025 -879 -865"/>
    </vehicle>
    <vehicle id="95" depart="66.50">
        <route edges="-592 -45 -27"/>
    </vehicle>
    <vehicle id="96" depart="67.20">
        <route edges="-164 -148 144 -15 3 27 43 68"/>
    </vehicle>
    <vehicle id="97" depart="67.90">
        <route edges="-64 -31 -23 -11 5"/>
    </vehicle>
    <vehicle id="98" depart="68.60">
        <route edges="1026 -1004 1002 -1194 -1150"/>
    </vehicle>
    <vehicle id="99" depart="69.30">
        <route edges="991 -879 -852 844 -79 -60 58 -592 -45 43"/>
    </vehicle>
    <vehicle id="100" depart="70.00">
        <route edges="854 -854 844 -79 -60 58 -592 -45 55 71"/>
    </vehicle>
    <vehicle id="101" depart="70.70">
        <route edges="444 588 -5 11 23 31 60 79 -844 854 1002 -1470"/>
    </vehicle>
    <vehicle id="102" depart="71.40">
        <route edges="-852 844 -79 75 162 -164"/>
    </vehicle>
    <vehicle id="103" depart="72.10">
        <route edges="-58 60 92 214 991 1025 1168 -1168"/>
    </vehicle>
    <vehicle id="104" depart="72.80">
        <route edges="-462 -206 -5 11 23 31 60 79 -844 852 879"/>
    </vehicle>
    <vehicle id="105" depart="73.50">
        <route edges="-190 -172 -148 -131 -109 23"/>
    </vehicle>
    <vehicle id="106" depart="74.20">
        <route edges="-71 -55 45 592 -58 60 79 -844 -831"/>
    </vehicle>
    <vehicle id="107" depart="74.90">
        <route edges="844 -79 92 214 991"/>
    </vehicle>
    <vehicle id="108" depart="75.60">
        <route edges="109 -120 162"/>
    </vehicle>
    <vehicle id="109" depart="76.30">
        <route edges="-131 -109 -11 5 -588 -334"/>
    </vehicle>
    <vehicle id="110" depart="77.00">
        <route edges="854 -854 852 879 1025 1154 1209"/>
    </vehicle>
    <vehicle id="111" depart="77.70">
        <route edges="1004 -1026 -1000 -854 844 -79 75 162 -164 172 196"/>
    </vehicle>
    <vehicle id="112" depart="78.40">
        <route edges="-1150 1148 1154 1209"/>
    </vehicle>
    <vehicle id="113" depart="79.10">
        <route edges="-865 -92 -60 -31 -23 -11 5 206 462"/>
    </vehicle>
    <vehicle id="114" depart="79.80">
        <route edges="-131 -120 -75 79 -844 852"/>
    </vehicle>
    <vehicle id="115" depart="80.50">
        <route edges="-1186 -338 -202 71 -3 15 -144 152 -152"/>
    </vehicle>
    <vehicle id="116" depart="81.20">
        <route edges="1178 1249 -340 -202 71 -3 15 -144 152"/>
    </vehicle>
    <vehicle id="117" depart="81.90">
        <route edges="-1614 -1186 -338 -202 71 -3 15 -123"/>
    </vehicle>
    <vehicle id="118" depart="82.60">
        <route edges="588 206 -206"/>
    </vehicle>
    <vehicle id="119" depart="83.30">
        <route edges="1178 1257"/>
    </vehicle>
    <vehicle id="120" depart="84.00">
        <route edges="-588 587 -3 11 23 31 60 92 214 991 1025 1154 1209"/>
    </vehicle>
    <vehicle id="121" depart="84.70">
        <route edges="-991 -214 -92 75"/>
    </vehicle>
    <vehicle id="122" depart="85.40">
        <route edges="-152 -131 -120 162"/>
    </vehicle>
    <vehicle id="123" depart="86.10">
        <route edges="-1614 -1186 -338 -202 -55 45 -68"/>
    </vehicle>
    <vehicle id="124" depart="86.80">
        <route edges="1259 1606 -338"/>
    </vehicle>
    <vehicle id="125" depart="87.50">
        <route edges="-27 27 43 199"/>
    </vehicle>
    <vehicle id="126" depart="88.20">
        <route edges="-1178 -338 -199 68 592 -58 60 92 214 991 -879"/>
    </vehicle>
    <vehicle id="127" depart="88.90">
        <route edges="991"/>
    </vehicle>
    <vehicle id="128" depart="89.60">
        <route edges="-1178 -338 -202 71 -3 15 -144 152 -164"/>
    </vehicle>
    <vehicle id="129" depart="90.30">
        <route edges="-190 -172 164 -162 -75 75"/>
    </vehicle>
    <vehicle id="130" depart="91.00">
        <route edges="583"/>
    </vehicle>
    <vehicle id="131" depart="91.70">
        <route edges="-45 -27 -3 15 -144"/>
    </vehicle>
    <vehicle id="132" depart="92.40">
        <route edges="340 -1249 -1178 1186 1610"/>
    </vehicle>
    <vehicle id="133" depart="93.10">
        <route edges="120 -120 -75 79 -844 852 879"/>
    </vehicle>
    <vehicle id="134" depart="93.80">
        <route edges="1242 -1242 -1168 -1148 1150 1194 -1002"/>
    </vehicle>
    <vehicle id="135" depart="94.50">
        <route edges="31 58 -592 -68 199 338 -338"/>
    </vehicle>
    <vehicle id="136" depart="95.20">
        <route edges="1257 1604 1606 -338 -199 68 592 -58 60 79"/>
    </vehicle>
    <vehicle id="137" depart="95.90">
        <route edges="-1242 1212 -1212"/>
    </vehicle>
    <vehicle id="138" depart="96.60">
        <route edges="-1209 -1154 -1025 -991 -214 -92 -60 58 -592 -68 199 338 1186"/>
    </vehicle>
    <vehicle id="139" depart="97.30">
        <route edges="-196 190 219 991 1025 1168 1242"/>
    </vehicle>
    <vehicle id="140" depart="98.00">
        <route edges="1595 -1212 -1168 -1025 -991 -214 -92 -60 58 -592 -68 199 338 -1606"/>
    </vehicle>
    <vehicle id="141" depart="98.70">
        <route edges="1211 -1212 -1168 -1025 -991 -219 -190 196 -583 -229"/>
    </vehicle>
    <vehicle id="142" depart="99.40">
        <route edges="-852 844 -79 -60 60"/>
    </vehicle>
    <vehicle id="143" depart="100.10">
        <route edges="43 68 592 -58 60 79 -844 854 1002 -1470 -1204"/>
    </vehicle>
    <vehicle id="144" depart="100.80">
        <route edges="-592 -45 -27"/>
    </vehicle>
    <vehicle id="145" depart="101.50">
        <route edges="-1000 -854 852 -865 214"/>
    </vehicle>
    <vehicle id="146" depart="102.20">
        <route edges="1211 -1212 -1168 -1025 -991 -219"/>
    </vehicle>
    <vehicle id="147" depart="102.90">
        <route edges="164 -152 144 -15 3 -71 202 338 1186"/>
    </vehicle>
    <vehicle id="148" depart="103.60">
        <route edges="-60 60 79 -844 854 1002 -1002"/>
    </vehicle>
    <vehicle id="149" depart="104.30">
        <route edges="-1178 -338 334 587"/>
    </vehicle>
    <vehicle id="150" depart="105.00">
        <route edges="60 -60 58 -592 -68 199 338 1178"/>
    </vehicle>
    <vehicle id="151" depart="105.70">
        <route edges="340 -1249 -1178 -338 -199 68 592 -58 60 92 214 991 1025 1154 1209"/>
    </vehicle>
    <vehicle id="152" depart="106.40">
        <route edges="-1259 1249 -340 -199 68 592 -58 60 92 214 991 1025 1168 1242 -1242"/>
    </vehicle>
    <vehicle id="153" depart="107.10">
        <route edges="-229 219 -214 -92 -60 58 -592 592"/>
    </vehicle>
    <vehicle id="154" depart="107.80">
        <route edges="23 -23 -11 5"/>
    </vehicle>
    <vehicle id="155" depart="108.50">
        <route edges="592 -58 64 162 -162"/>
    </vehicle>
    <vehicle id="156" depart="109.20">
        <route edges="-164 172 190 219 991 1025 1154 1209 -1209"/>
    </vehicle>
    <vehicle id="157" depart="109.90">
        <route edges="214 -214 -92 -60 -31 -23 -11 5 -588 587"/>
    </vehicle>
    <vehicle id="158" depart="110.60">
        <route edges="-583 -229 -190 -172 -148 144 -15 3 -71 202 340 -1249 1259"/>
    </vehicle>
    <vehicle id="159" depart="111.30">
        <route edges="-131 -120 -75 75"/>
    </vehicle>
    <vehicle id="160" depart="112.00">
        <route edges="5 -5 11 23 31 60 92 865"/>
    </vehicle>
    <vehicle id="161" depart="112.70">
        <route edges="3 -3 15 -144 148 172 190 229 583"/>
    </vehicle>
    <vehicle id="162" depart="113.40">
        <route edges="-1026 -1000 -854 844 -79 75 162 -164 172 184"/>
    </vehicle>
    <vehicle id="163" depart="114.10">
        <route edges="-31 31 60 75"/>
    </vehicle>
    <vehicle id="164" depart="114.80">
        <route edges="27 -27 -3 5"/>
    </vehicle>
    <vehicle id="165" depart="115.50">
        <route edges="3 -3 15 -144 148 172 196 -583 -229"/>
    </vehicle>
    <vehicle id="166" depart="116.20">
        <route edges="219 991 1025 1168 1212 -1211"/>
    </vehicle>
    <vehicle id="167" depart="116.90">
        <route edges="58 -37 -23 -11 5 206 474"/>
    </vehicle>
    <vehicle id="168" depart="117.60">
        <route edges="-1606 -1259 1249 -340 338"/>
    </vehicle>
    <vehicle id="169" depart="118.30">
        <route edges="-75 -60 58 -592 -68 199 338 1178 1249 -340"/>
    </vehicle>
    <vehicle id="170" depart="119.00">
        <route edges="23 31 60 92 214 -219 -190"/>
    </vehicle>
    <vehicle id="171" depart="119.70">
        <route edges="-1026 -1000 -854 844 -79 -60 58 -592 -68 199 338 -1606 -1604"/>
    </vehicle>
    <vehicle id="172" depart="120.40">
        <route edges="-31 -23 -11 5"/>
    </vehicle>
    <vehicle id="173" depart="121.10">
        <route edges="854 -854 844 -79 -60 58 -592 -45 -27"/>
    </vehicle>
    <vehicle id="174" depart="121.80">
        <route edges="1212 -1212 -1168 -1025 -991 -214 -92 -60 -31 -23 -11 3 -71"/>
    </vehicle>
    <vehicle id="175" depart="122.50">
        <route edges="873 1148 1154"/>
    </vehicle>
    <vehicle id="176" depart="123.20">
        <route edges="79 -844 852 879 1025 1154 1211 -1212"/>
    </vehicle>
    <vehicle id="177" depart="123.90">
        <route edges="854 -854 844 -79 75 120 123 -15"/>
    </vehicle>
    <vehicle id="178" depart="124.60">
        <route edges="852 879 -991 -219 -190 196 -583 -229"/>
    </vehicle>
    <vehicle id="179" depart="125.30">
        <route edges="-1209 -1154 -1025 -879 -852"/>
    </vehicle>
    <vehicle id="180" depart="126.00">
        <route edges="1606 -338 -199 68 592 -37"/>
    </vehicle>
    <vehicle id="181" depart="126.70">
        <route edges="1194 -1002 -854 844 -79 -60 -31 -23 109"/>
    </vehicle>
    <vehicle id="182" depart="127.40">
        <route edges="-474 -206 -5 11 23 31 60 92 214 991 1025 1154 1205"/>
    </vehicle>
    <vehicle id="183" depart="128.10">
        <route edges="-172 -148 144 -15 3 -71 202 338 1186 1614"/>
    </vehicle>
    <vehicle id="184" depart="128.80">
        <route edges="-1000 -854 844 -79 -60 58 -592 -45 55 71"/>
    </vehicle>
    <vehicle id="185" depart="129.50">
        <route edges="1004 -1026 -1000 -854 844 -79 75 162 -164 164"/>
    </vehicle>
    <vehicle id="186" depart="130.20">
        <route edges="164 -152 -131 -109 -11 15"/>
    </vehicle>
    <vehicle id="187" depart="130.90">
        <route edges="-444 202 340 -1249 -1178"/>
    </vehicle>
    <vehicle id="188" depart="131.60">
        <route edges="1257 1604 1606 -338 -199 68 -45"/>
    </vehicle>
    <vehicle id="189" depart="132.30">
        <route edges="-23 -11 5 206 462"/>
    </vehicle>
    <vehicle id="190" depart="133.00">
        <route edges="1604 1606 -338"/>
    </vehicle>
    <vehicle id="191" depart="133.70">
        <route edges="-229 -190 -172 164 -162 -75"/>
    </vehicle>
    <vehicle id="192" depart="134.40">
        <route edges="-58 -31 -23 -11 5 -588 -334"/>
    </vehicle>
    <vehicle id="193" depart="135.10">
        <route edges="-123 -120 -75 79 -827"/>
    </vehicle>
    <vehicle id="194" depart="135.80">
        <route edges="79 -79 75 162 -152 152"/>
    </vehicle>
    <vehicle id="195" depart="136.50">
        <route edges="60 -60 58 -592 -68 199 338 1178 1257"/>
    </vehicle>
    <vehicle id="196" depart="137.20">
        <route edges="-219 -190 -172 -148 144 -15 3 -71 202 338 1178"/>
    </vehicle>
    <vehicle id="197" depart="137.90">
        <route edges="-1000 -854 844 -79 -60 -31"/>
    </vehicle>
    <vehicle id="198" depart="138.60">
        <route edges="-60 60 92 214 991 1025 1154 1209"/>
    </vehicle>
    <vehicle id="199" depart="139.30">
        <route edges="1242 -1242 -1168 -1025 -991 -214 -92"/>
    </vehicle>
    <vehicle id="200" depart="140.00">
        <route edges="-64 64 162 -164"/>
    </vehicle>
    <vehicle id="201" depart="140.70">
        <route edges="-827 -612 -60 60"/>
    </vehicle>
    <vehicle id="202" depart="141.40">
        <route edges="23 31 64 162 -164 -148"/>
    </vehicle>
    <vehicle id="203" depart="142.10">
        <route edges="-1194 -1150 -873 -865 -92 -60 -31 -23 -11 11"/>
    </vehicle>
    <vehicle id="204" depart="142.80">
        <route edges="1211 -1212 -1168 -1025 -991 -214 -92 -60 -31 -23 -11 5 -5"/>
    </vehicle>
    <vehicle id="205" depart="143.50">
        <route edges="31 58 -592 -68 199"/>
    </vehicle>
    <vehicle id="206" depart="144.20">
        <route edges="131 148 172 190 -190"/>
    </vehicle>
    <vehicle id="207" depart="144.90">
        <route edges="-152 152 -162 -75 79 -844 854 1004 -1026"/>
    </vehicle>
    <vehicle id="208" depart="145.60">
        <route edges="-162 -75 79 -844 854 1000"/>
    </vehicle>
    <vehicle id="209" depart="146.30">
        <route edges="444 -334 338 1186 -1186"/>
    </vehicle>
    <vehicle id="210" depart="147.00">
        <route edges="-587 588 -5 11 109 131"/>
    </vehicle>
    <vehicle id="211" depart="147.70">
        <route edges="-15 3 -71 202 340 -1249 1259 1606"/>
    </vehicle>
    <vehicle id="212" depart="148.40">
        <route edges="-854 844 -79 -60 58 -592 -68 199 -202"/>
    </vehicle>
    <vehicle id="213" depart="149.10">
        <route edges="1249 -340 -199 68 592 -58 60 79 -844 854 1000 -1000"/>
    </vehicle>
    <vehicle id="214" depart="149.80">
        <route edges="190 219 -214 214"/>
    </vehicle>
    <vehicle id="215" depart="150.50">
        <route edges="-1209 -1154 -1025 -879 -852 -831"/>
    </vehicle>
    <vehicle id="216" depart="151.20">
        <route edges="-1474 1470 -1002 -854 844"/>
    </vehicle>
    <vehicle id="217" depart="151.90">
        <route edges="-92 79 -844 854 1002 -1194 -1150"/>
    </vehicle>
    <vehicle id="218" depart="152.60">
        <route edges="-164 -148 144 -15 5 206 462"/>
    </vehicle>
    <vehicle id="219" depart="153.30">
        <route edges="-75 -60 -31 31"/>
    </vehicle>
    <vehicle id="220" depart="154.00">
        <route edges="1259 1606 -338 -199 68 592 -58 60 79 -844 852 879"/>
    </vehicle>
    <vehicle id="221" depart="154.70">
        <route edges="1178 1249 -340 -199 68 592 -58 60 612 831"/>
    </vehicle>
    <vehicle id="222" depart="155.40">
        <route edges="588 -588 -334 338 1178 1249"/>
    </vehicle>
    <vehicle id="223" depart="156.10">
        <route edges="1595 -1211 1209 -1469 1470 -1002 1000 1034"/>
    </vehicle>
    <vehicle id="224" depart="156.80">
        <route edges="340 -1249 -1178 1178"/>
    </vehicle>
    <vehicle id="225" depart="157.50">
        <route edges="592 -58 64 162 -164 172 196"/>
    </vehicle>
    <vehicle id="226" depart="158.20">
        <route edges="-831 -612 92 214 -219"/>
    </vehicle>
    <vehicle id="227" depart="158.90">
        <route edges="-164 164 -162 -75 79 -844 854 1002 -1470 1469"/>
    </vehicle>
    <vehicle id="228" depart="159.60">
        <route edges="199 -199 68 592 -58 60 92 865 873 1148"/>
    </vehicle>
    <vehicle id="229" depart="160.30">
        <route edges="1209 -1469 1470 -1002 -854 844 -79 -60 -31 -23"/>
    </vehicle>
    <vehicle id="230" depart="161.00">
        <route edges="-1186 -338 -202 71 -3"/>
    </vehicle>
    <vehicle id="231" depart="161.70">
        <route edges="-196 -172 -148 144 -15 3 27 43 -43"/>
    </vehicle>
    <vehicle id="232" depart="162.40">
        <route edges="1004 -1026 -1000 -854 844 -79 -60 58 -592 -68 199 338 -1606 -1604 -1257"/>
    </vehicle>
    <vehicle id="233" depart="163.10">
        <route edges="-1610 -1186 1178 1257 1604"/>
    </vehicle>
    <vehicle id="234" depart="163.80">
        <route edges="15 -144 148 172 190 219 991 1025 1168 -1168"/>
    </vehicle>
    <vehicle id="235" depart="164.50">
        <route edges="-583 -229 219 991 1025 1168"/>
    </vehicle>
    <vehicle id="236" depart="165.20">
        <route edges="-588 587 -3 15 -144 152 -162"/>
    </vehicle>
    <vehicle id="237" depart="165.90">
        <route edges="-588 587 -3 11 23 31 60"/>
    </vehicle>
    <vehicle id="238" depart="166.60">
        <route edges="1154 -1154 -1025 -991 -214 -92 -60 58 -592 -68 199 338 1178 1257 1604"/>
    </vehicle>
    <vehicle id="239" depart="167.30">
        <route edges="45 -45 -27 -3 5 206"/>
    </vehicle>
    <vehicle id="240" depart="168.00">
        <route edges="-474 -206 -5 11 23 31 60 79 -844 854 1002 -1002"/>
    </vehicle>
    <vehicle id="241" depart="168.70">
        <route edges="-37 37 -592 -68 199"/>
    </vehicle>
    <vehicle id="242" depart="169.40">
        <route edges="444 588 -5 11 23 31 60 79 -844 844"/>
    </vehicle>
    <vehicle id="243" depart="170.10">
        <route edges="-588 587 -3 15 -144 148 172 196"/>
    </vehicle>
    <vehicle id="244" depart="170.80">
        <route edges="1025 1168 1242"/>
    </vehicle>
    <vehicle id="245" depart="171.50">
        <route edges="-1604 -1257 -1178 -338 -202 71 -3 15 -144 148 172 -172"/>
    </vehicle>
    <vehicle id="246" depart="172.20">
        <route edges="-612 79 -844 854 1004 -1026"/>
    </vehicle>
    <vehicle id="247" depart="172.90">
        <route edges="-334 -199 68 592 -58 60 92 214 991 1025 1168 1242 1595"/>
    </vehicle>
    <vehicle id="248" depart="173.60">
        <route edges="-583 -229 219 991 1025 -1148 1150 1194 -1470"/>
    </vehicle>
    <vehicle id="249" depart="174.30">
        <route edges="-79 92 214 991 1025 1168 1242 -1242"/>
    </vehicle>
    <vehicle id="250" depart="175.00">
        <route edges="1205 -1168 -1025 -879 -852 854 1004 -1026"/>
    </vehicle>
    <vehicle id="251" depart="175.70">