<?xml version="1.0" encoding="UTF-8"?>

<!-- generated on 2026-04-16 17:52:38.674102 by Eclipse SUMO randomTrips.py v1_26_0+0000-fa7df22d7f1
<configuration>
    <net-file value="D:\research project\NeurIPS\logic building\Meta-MOHRL- Antigravity code building\sumo_configs\15_topologies\topo_10_heterogeneous_mesh_C.net.xml"/>
    <output-trip-file value="D:\research project\NeurIPS\logic building\Meta-MOHRL- Antigravity code building\sumo_configs\15_topologies\topo_10_heterogeneous_mesh_C_trips.xml"/>
    <route-file value="D:\research project\NeurIPS\logic building\Meta-MOHRL- Antigravity code building\sumo_configs\15_topologies\topo_10_heterogeneous_mesh_C.rou.xml"/>
    <end value="1000.0"/>
    <period value="0.9"/>
</configuration>
-->

<!-- generated on 2026-04-16T17:52:38.556832-08:00 by Eclipse SUMO duarouter 1.26.0
<duarouterConfiguration xmlns:xsi="http://www.w3.org/2001/XMLSchema-instance" xsi:noNamespaceSchemaLocation="http://sumo.dlr.de/xsd/duarouterConfiguration.xsd">

    <input>
        <net-file value="D:\research project\NeurIPS\logic building\Meta-MOHRL- Antigravity code building\sumo_configs\15_topologies\topo_10_heterogeneous_mesh_C.net.xml"/>
        <route-files value="D:\research project\NeurIPS\logic building\Meta-MOHRL- Antigravity code building\sumo_configs\15_topologies\topo_10_heterogeneous_mesh_C_trips.xml"/>
    </input>

    <output>
        <output-file value="D:\research project\NeurIPS\logic building\Meta-MOHRL- Antigravity code building\sumo_configs\15_topologies\topo_10_heterogeneous_mesh_C.rou.xml"/>
        <alternatives-output value="NUL"/>
    </output>

    <time>
        <begin value="0.0"/>
        <end value="1000.0"/>
    </time>

    <report>
        <no-warnings value="true"/>
        <ignore-errors value="true"/>
        <no-step-log value="true"/>
    </report>

</duarouterConfiguration>
-->

<routes xmlns:xsi="http://www.w3.org/2001/XMLSchema-instance" xsi:noNamespaceSchemaLocation="http://sumo.dlr.de/xsd/routes_file.xsd">
    <vehicle id="0" depart="0.00">
        <route edges="184 -70 -40 42 -56 -1129 -1081"/>
    </vehicle>
    <vehicle id="1" depart="0.90">
        <route edges="-427 427 430 -430"/>
    </vehicle>
    <vehicle id="2" depart="1.80">
        <route edges="40 -59 58 63 181 304 346"/>
    </vehicle>
    <vehicle id="3" depart="2.70">
        <route edges="670 -673 674 -543 -520 -15 -3 7 56 173 -175"/>
    </vehicle>
    <vehicle id="4" depart="3.60">
        <route edges="-670 -526 -430 460 -520 -15 -3 11 -11"/>
    </vehicle>
    <vehicle id="5" depart="4.50">
        <route edges="-351 -322 -181 183 508 836 1007 1116"/>
    </vehicle>
    <vehicle id="6" depart="5.40">
        <route edges="-1079 1081 1129 56 -42 40 -40"/>
    </vehicle>
    <vehicle id="7" depart="6.30">
        <route edges="192 -192 -68 -40 42 -56 -1129 1265"/>
    </vehicle>
    <vehicle id="8" depart="7.20">
        <route edges="-351 -322 -181 181"/>
    </vehicle>
    <vehicle id="9" depart="8.10">
        <route edges="520 543 -674 673 676 987 1026 1151 -1149 -1024"/>
    </vehicle>
    <vehicle id="10" depart="9.00">
        <route edges="52 -52 -30 36"/>
    </vehicle>
    <vehicle id="11" depart="9.90">
        <route edges="-526 -430 496 544 497 502 550 -655 -356 -328"/>
    </vehicle>
    <vehicle id="12" depart="10.80">
        <route edges="836 -836 -508 -183 -63"/>
    </vehicle>
    <vehicle id="13" depart="11.70">
        <route edges="-13 13 -832 -508 -183"/>
    </vehicle>
    <vehicle id="14" depart="12.60">
        <route edges="544 -306 -181 -63 -36 -19 19"/>
    </vehicle>
    <vehicle id="15" depart="13.50">
        <route edges="52 -52 42"/>
    </vehicle>
    <vehicle id="16" depart="14.40">
        <route edges="-997 -968 960"/>
    </vehicle>
    <vehicle id="17" depart="15.30">
        <route edges="-56 -7 3 13"/>
    </vehicle>
    <vehicle id="18" depart="16.20">
        <route edges="534 -673 674 -543 -520 -15 -3 3"/>
    </vehicle>
    <vehicle id="19" depart="17.10">
        <route edges="58 -36 30 42 173"/>
    </vehicle>
    <vehicle id="20" depart="18.00">
        <route edges="332 420 -339 -7 3 15 520 543 -674 673 676 987 1026 1151 -1149"/>
    </vehicle>
    <vehicle id="21" depart="18.90">
        <route edges="-354 -328 324 -322 304 346 430 528 -528"/>
    </vehicle>
    <vehicle id="22" depart="19.80">
        <route edges="-1247 -1116 -1007 -836 -508 -183 181 304 346 448 -448"/>
    </vehicle>
    <vehicle id="23" depart="20.70">
        <route edges="-143 -42 -30 36 63 181 306 -544 -524"/>
    </vehicle>
    <vehicle id="24" depart="21.60">
        <route edges="183 508 832 -13 15 520 543 -674 673 -673"/>
    </vehicle>
    <vehicle id="25" depart="22.50">
        <route edges="-548 -502 -351 -324 -192 -68 -40 42 -42"/>
    </vehicle>
    <vehicle id="26" depart="23.40">
        <route edges="-42 40 70"/>
    </vehicle>
    <vehicle id="27" depart="24.30">
        <route edges="192"/>
    </vehicle>
    <vehicle id="28" depart="25.20">
        <route edges="-306 -181 -63 -36 30 42"/>
    </vehicle>
    <vehicle id="29" depart="26.10">
        <route edges="-30 32 59 68 -68"/>
    </vehicle>
    <vehicle id="30" depart="27.00">
        <route edges="987 -987 -676 -534 -430 -346 -304 -181 -63 -36 32"/>
    </vehicle>
    <vehicle id="31" depart="27.90">
        <route edges="1058 -997 -968 -956 -537 -460 496 544 497 502 550 -655 -356 354"/>
    </vehicle>
    <vehicle id="32" depart="28.80">
        <route edges="543 -543 -460 496 544 497 502"/>
    </vehicle>
    <vehicle id="33" depart="29.70">
        <route edges="-356 -328 324 -322 -181 183 508 836 -1247 -1116"/>
    </vehicle>
    <vehicle id="34" depart="30.60">
        <route edges="-502 -351 -324 -192 -68 -40 42 143 -52"/>
    </vehicle>
    <vehicle id="35" depart="31.50">
        <route edges="-342 346 460 543 829"/>
    </vehicle>
    <vehicle id="36" depart="32.40">
        <route edges="64 -64 68 192 328 356 655 -550"/>
    </vehicle>
    <vehicle id="37" depart="33.30">
        <route edges="25 42 -56 -7"/>
    </vehicle>
    <vehicle id="38" depart="34.20">
        <route edges="676 -676 690 1058 -997"/>
    </vehicle>
    <vehicle id="39" depart="35.10">
        <route edges="-42 -30 36 63 181 306 -544 -496"/>
    </vehicle>
    <vehicle id="40" depart="36.00">
        <route edges="1081 1129 -7 3 13 -832 -508"/>
    </vehicle>
    <vehicle id="41" depart="36.90">
        <route edges="1149 -1151 -1026 -987 -676 -673 674"/>
    </vehicle>
    <vehicle id="42" depart="37.80">
        <route edges="-64 -59 58 63 181 304 346 -427"/>
    </vehicle>
    <vehicle id="43" depart="38.70">
        <route edges="997 -1058 -690 -673 674 -543 -520 -15 -3 11 1081 1129"/>
    </vehicle>
    <vehicle id="44" depart="39.60">
        <route edges="-13 15 520 543 -674 673 676 987 1024 1149 -1151"/>
    </vehicle>
    <vehicle id="45" depart="40.50">
        <route edges="-17 19 36 63 181 304"/>
    </vehicle>
    <vehicle id="46" depart="41.40">
        <route edges="497 -351 -322 -181 -63 -36 -19 -9"/>
    </vehicle>
    <vehicle id="47" depart="42.30">
        <route edges="-1151 -1026 -987 -676 -534 -430 -346 -304 322 -324 -192 -68"/>
    </vehicle>
    <vehicle id="48" depart="43.20">
        <route edges="997 -1058 -690 676 987 1026 1233"/>
    </vehicle>
    <vehicle id="49" depart="44.10">
        <route edges="956 -956 -667 -15 13 -17 25 40 64"/>
    </vehicle>
    <vehicle id="50" depart="45.00">
        <route edges="-1026 -987 -676 -534 -430 -346 -304 322 -324 -192 184 418"/>
    </vehicle>
    <vehicle id="51" depart="45.90">
        <route edges="32 58 63 181 304 346 430 534 676 1239"/>
    </vehicle>
    <vehicle id="52" depart="46.80">
        <route edges="-42 -30 32"/>
    </vehicle>
    <vehicle id="53" depart="47.70">
        <route edges="-17 -9 3 15 667 956 -956"/>
    </vehicle>
    <vehicle id="54" depart="48.60">
        <route edges="-690 -673 674 -543 -520 -15 -3 9"/>
    </vehicle>
    <vehicle id="55" depart="49.50">
        <route edges="64 -46 -25 17 -832 -508"/>
    </vehicle>
    <vehicle id="56" depart="50.40">
        <route edges="-948 -13 15 520 -460 -346"/>
    </vehicle>
    <vehicle id="57" depart="51.30">
        <route edges="676 -676 -534 -430 -346 -304 322 -324 -192 184 418 661"/>
    </vehicle>
    <vehicle id="58" depart="52.20">
        <route edges="-460 -346 -304 -181 -63 -36 32"/>
    </vehicle>
    <vehicle id="59" depart="53.10">
        <route edges="15 520 -460 496 544 497 -351 -324"/>
    </vehicle>
    <vehicle id="60" depart="54.00">
        <route edges="430 528 674 -543 -520 -15 13 948 1007 1116 1247"/>
    </vehicle>
    <vehicle id="61" depart="54.90">
        <route edges="460 543 -674 673 676 987 1026 1233"/>
    </vehicle>
    <vehicle id="62" depart="55.80">
        <route edges="-1007 -836 -508 -183 -63 -58"/>
    </vehicle>
    <vehicle id="63" depart="56.70">
        <route edges="-1056 -987 -676 -673 674 -543 -520 -15 -3 7"/>
    </vehicle>
    <vehicle id="64" depart="57.60">
        <route edges="64 -64 68 192 324 351 502 548"/>
    </vehicle>
    <vehicle id="65" depart="58.50">
        <route edges="-497 -306 -181 183 508 832 -13"/>
    </vehicle>
    <vehicle id="66" depart="59.40">
        <route edges="64 -46 -25 17 -832 832"/>
    </vehicle>
    <vehicle id="67" depart="60.30">
        <route edges="-1265 -1081 -11 3 15 520 543 -674 673 690 1058"/>
    </vehicle>
    <vehicle id="68" depart="61.20">
        <route edges="-1233 -1026 -987 -676 -534 -430 460"/>
    </vehicle>
    <vehicle id="69" depart="62.10">
        <route edges="430 528 674 -543 -520 -15 13 -17 25 -30"/>
    </vehicle>
    <vehicle id="70" depart="63.00">
        <route edges="-70 -40 -25 17 -13 13"/>
    </vehicle>
    <vehicle id="71" depart="63.90">
        <route edges="-42 40 70 418 661"/>
    </vehicle>
    <vehicle id="72" depart="64.80">
        <route edges="-670 -526 -430 460 -520 -15 -3 7 56 -42"/>
    </vehicle>
    <vehicle id="73" depart="65.70">
        <route edges="1007 1116 1247 -948 -17 25 42"/>
    </vehicle>
    <vehicle id="74" depart="66.60">
        <route edges="-332 -64 68 192 328 356 655 -550"/>
    </vehicle>
    <vehicle id="75" depart="67.50">
        <route edges="997 -1058 -690 -534 -430 -346 -304 322 -324 324"/>
    </vehicle>
    <vehicle id="76" depart="68.40">
        <route edges="-674 674 -543 -520 -15 -3 11 1144"/>
    </vehicle>
    <vehicle id="77" depart="69.30">
        <route edges="-175 -52 -30 36 63 181 304 346 430 -430"/>
    </vehicle>
    <vehicle id="78" depart="70.20">
        <route edges="-526 -430 -346 -304 -181 181"/>
    </vehicle>
    <vehicle id="79" depart="71.10">
        <route edges="-356 -328 324 351 -497 -544 -496 -427"/>
    </vehicle>
    <vehicle id="80" depart="72.00">
        <route edges="-1233 -1026 -987 -676 -534 -430 -346 -304 304"/>
    </vehicle>
    <vehicle id="81" depart="72.90">
        <route edges="-356 -328 324 -322 304 346 430 534 676"/>
    </vehicle>
    <vehicle id="82" depart="73.80">
        <route edges="56 -42 -25 17 -13 15 -15"/>
    </vehicle>
    <vehicle id="83" depart="74.70">
        <route edges="-36 36 63 181 304 342"/>
    </vehicle>
    <vehicle id="84" depart="75.60">
        <route edges="-346 -304"/>
    </vehicle>
    <vehicle id="85" depart="76.50">
        <route edges="7 -7 9 17"/>
    </vehicle>
    <vehicle id="86" depart="77.40">
        <route edges="-70 -40 52"/>
    </vehicle>
    <vehicle id="87" depart="78.30">
        <route edges="52 -52 40 68 192 324 351 502 550 -655 -356"/>
    </vehicle>
    <vehicle id="88" depart="79.20">
        <route edges="-142 -40 -25 17 -13 15 667 956 -956"/>
    </vehicle>
    <vehicle id="89" depart="80.10">
        <route edges="-670 670 676 987 1024"/>
    </vehicle>
    <vehicle id="90" depart="81.00">
        <route edges="356 655 -550 -502 -497 -306 304 342"/>
    </vehicle>
    <vehicle id="91" depart="81.90">
        <route edges="968 -968 -956 -667 -15 13 -832 -508 -183"/>
    </vehicle>
    <vehicle id="92" depart="82.80">
        <route edges="-64"/>
    </vehicle>
    <vehicle id="93" depart="83.70">
        <route edges="58 63 181 306 -544 -496"/>
    </vehicle>
    <vehicle id="94" depart="84.60">
        <route edges="-324 324 -322 304 346 430 534 676 987 -987"/>
    </vehicle>
    <vehicle id="95" depart="85.50">
        <route edges="-670 -526 -430 496 -524"/>
    </vehicle>
    <vehicle id="96" depart="86.40">
        <route edges="-374 -184 192 324 -322 304 346 448 697"/>
    </vehicle>
    <vehicle id="97" depart="87.30">
        <route edges="-676 -534 -430 -346 -304 -181 -63 -58 59 64"/>
    </vehicle>
    <vehicle id="98" depart="88.20">
        <route edges="1026 -1026 1024 1149 -1151"/>
    </vehicle>
    <vehicle id="99" depart="89.10">
        <route edges="997 -1058 -690 -534 -430 496 544 497 502 550"/>
    </vehicle>
    <vehicle id="100" depart="90.00">
        <route edges="956 -829 -543 -460 448 697"/>
    </vehicle>
    <vehicle id="101" depart="90.90">
        <route edges="544 497 -351 -324 -192 -68 64 332 420 -339"/>
    </vehicle>
    <vehicle id="102" depart="91.80">
        <route edges="-832 832 -13 -3 7 339 -420"/>
    </vehicle>
    <vehicle id="103" depart="92.70">
        <route edges="-64 -40 -25 17 -13"/>
    </vehicle>
    <vehicle id="104" depart="93.60">
        <route edges="-56 -7 3 15 667 956 960 991"/>
    </vehicle>
    <vehicle id="105" depart="94.50">
        <route edges="-42 52"/>
    </vehicle>
    <vehicle id="106" depart="95.40">
        <route edges="-690 -673 674 -543 -520 -15 13 -17 -9"/>
    </vehicle>
    <vehicle id="107" depart="96.30">
        <route edges="836 -948 -13 15 667 956 968 997"/>
    </vehicle>
    <vehicle id="108" depart="97.20">
        <route edges="1058 -997 -968 -956 -667 -15 13 -17 25 40"/>
    </vehicle>
    <vehicle id="109" depart="98.10">
        <route edges="-25 17 -13 15 667 -537"/>
    </vehicle>
    <vehicle id="110" depart="99.00">
        <route edges="948 -948 -17 25 42 173"/>
    </vehicle>
    <vehicle id="111" depart="99.90">
        <route edges="1007 1116 1247 -948 -13 15 520 -460 448"/>
    </vehicle>
    <vehicle id="112" depart="100.80">
        <route edges="-1149 -1024 -987 -676 -673 674 -543 -520 -15 13 -17 25 52 175"/>
    </vehicle>
    <vehicle id="113" depart="101.70">
        <route edges="-956 -667 -15 13 -17 19 32 59"/>
    </vehicle>
    <vehicle id="114" depart="102.60">
        <route edges="-3 9 17 948"/>
    </vehicle>
    <vehicle id="115" depart="103.50">
        <route edges="-1247 -1116 -1007 -836 -508 -183 181 306 497 -351"/>
    </vehicle>
    <vehicle id="116" depart="104.40">
        <route edges="1247 -836 -508 -183 181 304 346"/>
    </vehicle>
    <vehicle id="117" depart="105.30">
        <route edges="-36 -19 17 -13 -3"/>
    </vehicle>
    <vehicle id="118" depart="106.20">
        <route edges="667 -537 -460 496 -496"/>
    </vehicle>
    <vehicle id="119" depart="107.10">
        <route edges="1247 -948 -13 -3 3"/>
    </vehicle>
    <vehicle id="120" depart="108.00">
        <route edges="-667 -15 13 -17 25 52 175"/>
    </vehicle>
    <vehicle id="121" depart="108.90">
        <route edges="-987 -676 -534 -430 -346 -304 -181 -63 -58 59 70"/>
    </vehicle>
    <vehicle id="122" depart="109.80">
        <route edges="-339 56 -42 40"/>
    </vehicle>
    <vehicle id="123" depart="110.70">
        <route edges="-360 -328 -192 -68 -40 42 -56 -7"/>
    </vehicle>
    <vehicle id="124" depart="111.60">
        <route edges="304 346 460 537 -537"/>
    </vehicle>
    <vehicle id="125" depart="112.50">
        <route edges="-508 -183 -63 -36 30 46"/>
    </vehicle>
    <vehicle id="126" depart="113.40">
        <route edges="-1239 -676 690 1058 -997"/>
    </vehicle>
    <vehicle id="127" depart="114.30">
        <route edges="997"/>
    </vehicle>
    <vehicle id="128" depart="115.20">
        <route edges="-1239 -676 -673 674 -543 -520 -15 -3 7 339 -420"/>
    </vehicle>
    <vehicle id="129" depart="116.10">
        <route edges="-42 40 70"/>
    </vehicle>
    <vehicle id="130" depart="117.00">
        <route edges="655 -550 -502 -497 -544 -496 460 -520 667"/>
    </vehicle>
    <vehicle id="131" depart="117.90">
        <route edges="-548 550 -655 -356 -328"/>
    </vehicle>
    <vehicle id="132" depart="118.80">
        <route edges="534 -534 -430 496 544 497 502 550 -655 -356 360"/>
    </vehicle>
    <vehicle id="133" depart="119.70">
        <route edges="17 -13 15 667 956 960 991"/>
    </vehicle>
    <vehicle id="134" depart="120.60">
        <route edges="25 -30 36 63 181 304 346 430 534 676 987 1026 1151 -1149 -1024"/>
    </vehicle>
    <vehicle id="135" depart="121.50">
        <route edges="524 -496 460 537 -537"/>
    </vehicle>
    <vehicle id="136" depart="122.40">
        <route edges="30 -25 17 -13 15 520 543 829"/>
    </vehicle>
    <vehicle id="137" depart="123.30">
        <route edges="-183 -63 -36 30 -25"/>
    </vehicle>
    <vehicle id="138" depart="124.20">
        <route edges="-15 13"/>
    </vehicle>
    <vehicle id="139" depart="125.10">
        <route edges="-420 -332 -46 -25 19"/>
    </vehicle>
    <vehicle id="140" depart="126.00">
        <route edges="346 496 544 497 -351 -324 -192 184 418 661 -661 -418"/>
    </vehicle>
    <vehicle id="141" depart="126.90">
        <route edges="183 508 -508"/>
    </vehicle>
    <vehicle id="142" depart="127.80">
        <route edges="-836 -508 -183 181 304 346 430 534 676"/>
    </vehicle>
    <vehicle id="143" depart="128.70">
        <route edges="544 -306 -181"/>
    </vehicle>
    <vehicle id="144" depart="129.60">
        <route edges="-670 -526 -430 496 -524"/>
    </vehicle>
    <vehicle id="145" depart="130.50">
        <route edges="-1007 -836 -508 -183 181 306 497"/>
    </vehicle>
    <vehicle id="146" depart="131.40">
        <route edges="183 508 -508"/>
    </vehicle>
    <vehicle id="147" depart="132.30">
        <route edges="418 661 -661 -418 -70 -40 -25 17 -13 13"/>
    </vehicle>
    <vehicle id="148" depart="133.20">
        <route edges="-672 670 676 987 1026 1151 -1149 -1024"/>
    </vehicle>
    <vehicle id="149" depart="134.10">
        <route edges="-1239 -676 -670 670"/>
    </vehicle>
    <vehicle id="150" depart="135.00">
        <route edges="673 -673 674 -543 -520 -15 -3 11 1081 1265"/>
    </vehicle>
    <vehicle id="151" depart="135.90">
        <route edges="537 -667 -15 13 -17 25 52 175"/>
    </vehicle>
    <vehicle id="152" depart="136.80">
        <route edges="-192 -68 -40 -30"/>
    </vehicle>
    <vehicle id="153" depart="137.70">
        <route edges="-497 -544 -496 430 528 674"/>
    </vehicle>
    <vehicle id="154" depart="138.60">
        <route edges="502 -502 -351 -324 -192 -68 64"/>
    </vehicle>
    <vehicle id="155" depart="139.50">
        <route edges="672 -691 -448 460 -520 -15 -3 7 56 -42"/>
    </vehicle>
    <vehicle id="156" depart="140.40">
        <route edges="-374 -184"/>
    </vehicle>
    <vehicle id="157" depart="141.30">
        <route edges="460 -460 430 526 670"/>
    </vehicle>
    <vehicle id="158" depart="142.20">
        <route edges="-655 -356 -328 -192 -68 -40 -25 -9 3"/>
    </vehicle>
    <vehicle id="159" depart="143.10">
        <route edges="-25 -9 7"/>
    </vehicle>
    <vehicle id="160" depart="144.00">
        <route edges="58 63 183 508 832 -13 15 667 956 968"/>
    </vehicle>
    <vehicle id="161" depart="144.90">
        <route edges="520 -460 430 526 670"/>
    </vehicle>
    <vehicle id="162" depart="145.80">
        <route edges="-1058 -690 -534 -430 -427 427"/>
    </vehicle>
    <vehicle id="163" depart="146.70">
        <route edges="-524 427 460 -520 -15 -3 7"/>
    </vehicle>
    <vehicle id="164" depart="147.60">
        <route edges="508 832 -17 25 40 64"/>
    </vehicle>
    <vehicle id="165" depart="148.50">
        <route edges="520 -520 -15 -3 7 56 143 -52"/>
    </vehicle>
    <vehicle id="166" depart="149.40">
        <route edges="496 544 -306 -181 -63 -36 -19"/>
    </vehicle>
    <vehicle id="167" depart="150.30">
        <route edges="63"/>
    </vehicle>
    <vehicle id="168" depart="151.20">
        <route edges="-351 -322 304 346 460 537"/>
    </vehicle>
    <vehicle id="169" depart="152.10">
        <route edges="-691 -448 460 543 -543"/>
    </vehicle>
    <vehicle id="170" depart="153.00">
        <route edges="502 -502 -497 -544 -496 430 -430"/>
    </vehicle>
    <vehicle id="171" depart="153.90">
        <route edges="-1058 -690 -534 -430 -346 -304 -181 -63 -36"/>
    </vehicle>
    <vehicle id="172" depart="154.80">
        <route edges="-520 -15 13 -17 25 40 64"/>
    </vehicle>
    <vehicle id="173" depart="155.70">
        <route edges="948 -836 -508 -183 181 306 -544 -524"/>
    </vehicle>
    <vehicle id="174" depart="156.60">
        <route edges="184 -70"/>
    </vehicle>
    <vehicle id="175" depart="157.50">
        <route edges="968 997 -1058 -690 676 1239"/>
    </vehicle>
    <vehicle id="176" depart="158.40">
        <route edges="70 -184 -68 -40 -25"/>
    </vehicle>
    <vehicle id="177" depart="159.30">
        <route edges="956 -829 -543 -460 -346"/>
    </vehicle>
    <vehicle id="178" depart="160.20">
        <route edges="9 25 52 -52"/>
    </vehicle>
    <vehicle id="179" depart="161.10">
        <route edges="-15 15 667 956 -956"/>
    </vehicle>
    <vehicle id="180" depart="162.00">
        <route edges="356 655 -550"/>
    </vehicle>
    <vehicle id="181" depart="162.90">
        <route edges="143 -143 -56 -1129 1129"/>
    </vehicle>
    <vehicle id="182" depart="163.80">
        <route edges="-58 59 -40 42 173"/>
    </vehicle>
    <vehicle id="183" depart="164.70">
        <route edges="-40 40 70 362"/>
    </vehicle>
    <vehicle id="184" depart="165.60">
        <route edges="-1007 -836 -508 -183 181 304 346 448 697"/>
    </vehicle>
    <vehicle id="185" depart="166.50">
        <route edges="-997 -968 -956 -667 -15 13 -17 25 40"/>
    </vehicle>
    <vehicle id="186" depart="167.40">
        <route edges="418 661 -661 -418 -184 192 324 -322 304 342"/>
    </vehicle>
    <vehicle id="187" depart="168.30">
        <route edges="-544 -496 460 -520 -15"/>
    </vehicle>
    <vehicle id="188" depart="169.20">
        <route edges="30 40 -59"/>
    </vehicle>
    <vehicle id="189" depart="170.10">
        <route edges="-502 -351 -324 -192 -68 -59 58"/>
    </vehicle>
    <vehicle id="190" depart="171.00">
        <route edges="346 460 537 -537"/>
    </vehicle>
    <vehicle id="191" depart="171.90">
        <route edges="-497 -544 -496 460 537 956 -829"/>
    </vehicle>
    <vehicle id="192" depart="172.80">
        <route edges="-64 -40 -25 17 -13 15 667 -537"/>
    </vehicle>
    <vehicle id="193" depart="173.70">
        <route edges="-181 -63 -36 -19 -9"/>
    </vehicle>
    <vehicle id="194" depart="174.60">
        <route edges="70 -184 192 324 -322 304 346"/>
    </vehicle>
    <vehicle id="195" depart="175.50">
        <route edges="673 -673 674 -543 -520 -15 13 -17 25"/>
    </vehicle>
    <vehicle id="196" depart="176.40">
        <route edges="-496 460 -520 -15 -3 11 1081 1265"/>
    </vehicle>
    <vehicle id="197" depart="177.30">
        <route edges="-1007 -948 -13 15 520 543 -674 -528"/>
    </vehicle>
    <vehicle id="198" depart="178.20">
        <route edges="-672 -526 -430 -346 -304 -181 -63 -36 30 42 173"/>
    </vehicle>
    <vehicle id="199" depart="179.10">
        <route edges="25 -25 17 948 1007"/>
    </vehicle>
    <vehicle id="200" depart="180.00">
        <route edges="-676 -673 674 -543 -520 -15 -3 7 339 -420"/>
    </vehicle>
    <vehicle id="201" depart="180.90">
        <route edges="-70 -59 58 63 181 304 346 430 528 674"/>
    </vehicle>
    <vehicle id="202" depart="181.80">
        <route edges="502 -502 -351 -324 -192 -68 64 332 420 -339"/>
    </vehicle>
    <vehicle id="203" depart="182.70">
        <route edges="-1265 -1081 1144"/>
    </vehicle>
    <vehicle id="204" depart="183.60">
        <route edges="183 508 -508 -183 -63"/>
    </vehicle>
    <vehicle id="205" depart="184.50">
        <route edges="524 -496 448"/>
    </vehicle>
    <vehicle id="206" depart="185.40">
        <route edges="304 346 430 -430"/>
    </vehicle>
    <vehicle id="207" depart="186.30">
        <route edges="-332 -46 42 -56 -1129 -1081"/>
    </vehicle>
    <vehicle id="208" depart="187.20">
        <route edges="-362 -184 192 324 -322 304 346 430 534 676 987 1026"/>
    </vehicle>
    <vehicle id="209" depart="188.10">
        <route edges="544 -306 -181 183 508 832 -17"/>
    </vehicle>
    <vehicle id="210" depart="189.00">
        <route edges="-661 -418 -184 192 324 -322 304"/>
    </vehicle>
    <vehicle id="211" depart="189.90">
        <route edges="-328 -192 -68 -59 -32 36"/>
    </vehicle>
    <vehicle id="212" depart="190.80">
        <route edges="-9 3 15 520 -460 496 -496"/>
    </vehicle>
    <vehicle id="213" depart="191.70">
        <route edges="25 -30 36 63 181 304 346 430 534 676 987 1026 1151 -1149 -1024"/>
    </vehicle>
    <vehicle id="214" depart="192.60">
        <route edges="42 143 -52 -30 36 63 181 306 497"/>
    </vehicle>
    <vehicle id="215" depart="193.50">
        <route edges="-15 13 948 -948"/>
    </vehicle>
    <vehicle id="216" depart="194.40">
        <route edges="-306 -181 183 508 832 -13 -3 9"/>
    </vehicle>
    <vehicle id="217" depart="195.30">
        <route edges="-968 -829 -674 673 676 987 1024 1149 -1151"/>
    </vehicle>
    <vehicle id="218" depart="196.20">
        <route edges="-374 -70 -59 58"/>
    </vehicle>
    <vehicle id="219" depart="197.10">
        <route edges="-691 -448 430 526"/>
    </vehicle>
    <vehicle id="220" depart="198.00">
        <route edges="30 -25 17 -13 15 667 956 960 991"/>
    </vehicle>
    <vehicle id="221" depart="198.90">
        <route edges="1247 -836 836"/>
    </vehicle>
    <vehicle id="222" depart="199.80">
        <route edges="670 -673 674 -543 -520 -15 13 -17 25"/>
    </vehicle>
    <vehicle id="223" depart="200.70">
        <route edges="346 460 -520 -15 13 948 1007 1116"/>
    </vehicle>
    <vehicle id="224" depart="201.60">
        <route edges="534 -673 674 -543 -520 -15 -3 11 1081 1265"/>
    </vehicle>
    <vehicle id="225" depart="202.50">
        <route edges="672 -691 -448 430"/>
    </vehicle>
    <vehicle id="226" depart="203.40">
        <route edges="-70 -40 -25 17 -832 -508"/>
    </vehicle>
    <vehicle id="227" depart="204.30">
        <route edges="-362 -70 -59 58 -36 32"/>
    </vehicle>
    <vehicle id="228" depart="205.20">
        <route edges="430 534 676 987 1024 1149"/>
    </vehicle>
    <vehicle id="229" depart="206.10">
        <route edges="175 -173 -56 -7 3 15 520 -520"/>
    </vehicle>
    <vehicle id="230" depart="207.00">
        <route edges="-1239 -676 -673 -528"/>
    </vehicle>
    <vehicle id="231" depart="207.90">
        <route edges="-420 -332 -46 42 -56"/>
    </vehicle>
    <vehicle id="232" depart="208.80">
        <route edges="1007 1116 1247 -836 -508 -183 181 306 -306"/>
    </vehicle>
    <vehicle id="233" depart="209.70">
        <route edges="-356 356"/>
    </vehicle>
    <vehicle id="234" depart="210.60">
        <route edges="339 -420 -332 -46 52 -143"/>
    </vehicle>
    <vehicle id="235" depart="211.50">
        <route edges="-655 -356 -328 324 -322 -181 183 508 836 1007 1116 1247"/>
    </vehicle>
    <vehicle id="236" depart="212.40">
        <route edges="-667 -15 13 -17 25 40 70 418 661 -661 -418"/>
    </vehicle>
    <vehicle id="237" depart="213.30">
        <route edges="-670 670 676"/>
    </vehicle>
    <vehicle id="238" depart="214.20">
        <route edges="1149 -1151 -1026 -987 -676 -534 -430 -346 -304 -181 -63 -36 36"/>
    </vehicle>
    <vehicle id="239" depart="215.10">
        <route edges="56 -42 -30 36 63 181 304 346 496"/>
    </vehicle>
    <vehicle id="240" depart="216.00">
        <route edges="-56 -7 3 15 520 543 -674 673 676 987 1026 1151 -1149 -1024"/>
    </vehicle>
    <vehicle id="241" depart="216.90">
        <route edges="-534 -430 -346 -304 -181 -63 -36 30 46"/>
    </vehicle>
    <vehicle id="242" depart="217.80">
        <route edges="550 -655 -356 -328 -192 -68 -40 -25 -9 9"/>
    </vehicle>
    <vehicle id="243" depart="218.70">
        <route edges="-667 520 -460 448"/>
    </vehicle>
    <vehicle id="244" depart="219.60">
        <route edges="1024 1149 -1151 -1026 -987 -676 -673 674 -543 -520 -15 13 -17 19"/>
    </vehicle>
    <vehicle id="245" depart="220.50">
        <route edges="-351 -322 304 346 -427"/>
    </vehicle>
    <vehicle id="246" depart="221.40">
        <route edges="-674 674 -543 -520 -15 -3 11 -11"/>
    </vehicle>
    <vehicle id="247" depart="222.30">
        <route edges="-524 -342 -304 322 351"/>
    </vehicle>
    <vehicle id="248" depart="223.20">
        <route edges="-655 -356 -328 -192 -68 -40 42 -56 339 -420 -332"/>
    </vehicle>
    <vehicle id="249" depart="224.10">
        <route edges="-7 9 25 -30"/>
    </vehicle>
    <vehicle id="250" depart="225.00">
        <route edges="175 -173 -56 -1129 -1081 -11"/>
    </vehicle>
    <vehicle id="251" depart="225.90">
        <route edges="-63 -36 30 42 143"/>
    </vehicle>
    <vehicle id="252" depart="226.80">
        <route edges="-1079 -11 9 19 36 63 181 322"/>
    </vehicle>
    <vehicle id="253" depart="227.70">
        <route edges="-184 -68 -40 -25 17 948 1007"/>
    </vehicle>
    <vehicle id="254" depart="228.60">
        <route edges="-1129 1129 56 -42 40 68 -68"/>
    </vehicle>
    <vehicle id="255" depart="229.50">
        <route edges="-342 -304 -181 -63 -58 59 -59"/>
    </vehicle>
    <vehicle id="256" depart="230.40">
        <route edges="427 -346 -304 322 -324 -192 -68"/>
    </vehicle>
    <vehicle id="257" depart="231.30">
        <route edges="420 -339 56 -42 40 68 192 324 351 502 548"/>
    </vehicle>
    <vehicle id="258" depart="232.20">