<?xml version="1.0" encoding="UTF-8"?>

<!-- generated on 2026-04-16T17:52:33.495314-08:00 by Eclipse SUMO netgenerate 1.26.0
<netgenerateConfiguration xmlns:xsi="http://www.w3.org/2001/XMLSchema-instance" xsi:noNamespaceSchemaLocation="http://sumo.dlr.de/xsd/netgenerateConfiguration.xsd">

    <random_network>
        <rand value="true"/>
        <rand.iterations value="50"/>
        <rand.max-distance value="200"/>
    </random_network>

    <output>
        <output-file value="D:\research project\NeurIPS\logic building\Meta-MOHRL- Antigravity code building\sumo_configs\15_topologies\topo_08_heterogeneous_mesh_A.net.xml"/>
    </output>

</netgenerateConfiguration>
-->

<net version="1.20" junctionCornerDetail="5" limitTurnSpeed="5.50" xmlns:xsi="http://www.w3.org/2001/XMLSchema-instance" xsi:noNamespaceSchemaLocation="http://sumo.dlr.de/xsd/net_file.xsd">

    <location netOffset="580.54,614.16" convBoundary="0.00,0.00,1288.21,1283.93" origBoundary="-580.54,-614.16,707.66,669.77" projParameter="!"/>

    <edge id=":1_0" function="internal">
        <lane id=":1_0_0" index="0" speed="5.98" length="9.08" shape="579.07,622.46 578.66,619.89 577.53,618.31 575.68,617.73 573.11,618.14"/>
    </edge>
    <edge id=":1_1" function="internal">
        <lane id=":1_1_0" index="0" speed="13.89" length="14.86" shape="579.07,622.46 578.93,618.73 578.62,615.04 578.10,611.38 577.35,607.73"/>
    </edge>
    <edge id=":1_2" function="internal">
        <lane id=":1_2_0" index="0" speed="8.09" length="4.36" shape="579.07,622.46 579.57,618.12"/>
    </edge>
    <edge id=":1_3" function="internal">
        <lane id=":1_3_0" index="0" speed="3.65" length="1.44" shape="579.07,622.46 579.85,621.24"/>
    </edge>
    <edge id=":1_16" function="internal">
        <lane id=":1_16_0" index="0" speed="8.09" length="10.76" shape="579.57,618.12 581.22,615.07 584.02,613.31 587.97,612.84"/>
    </edge>
    <edge id=":1_17" function="internal">
        <lane id=":1_17_0" index="0" speed="3.65" length="3.23" shape="579.85,621.24 580.64,620.83 581.45,621.22 582.27,622.41"/>
    </edge>
    <edge id=":1_4" function="internal">
        <lane id=":1_4_0" index="0" speed="6.62" length="9.76" shape="587.85,616.04 585.37,616.36 583.61,617.52 582.58,619.54 582.27,622.41"/>
    </edge>
    <edge id=":1_5" function="internal">
        <lane id=":1_5_0" index="0" speed="13.89" length="14.95" shape="587.85,616.04 584.11,616.08 580.40,616.46 576.73,617.16 573.11,618.14"/>
    </edge>
    <edge id=":1_6" function="internal">
        <lane id=":1_6_0" index="0" speed="9.03" length="14.51" shape="587.85,616.04 583.98,615.40 580.93,613.80 578.73,611.24 577.35,607.73"/>
    </edge>
    <edge id=":1_7" function="internal">
        <lane id=":1_7_0" index="0" speed="3.65" length="4.67" shape="587.85,616.04 586.68,615.19 586.31,614.38 586.74,613.59 587.97,612.84"/>
    </edge>
    <edge id=":1_8" function="internal">
        <lane id=":1_8_0" index="0" speed="7.70" length="10.32" shape="580.46,606.98 581.44,609.46 583.01,611.26 585.19,612.39 587.97,612.84"/>
    </edge>
    <edge id=":1_9" function="internal">
        <lane id=":1_9_0" index="0" speed="13.89" length="15.56" shape="580.46,606.98 581.23,610.74 581.77,614.64 582.12,618.57 582.27,622.41"/>
    </edge>
    <edge id=":1_10" function="internal">
        <lane id=":1_10_0" index="0" speed="8.41" length="4.08" shape="580.46,606.98 580.75,610.78 580.65,611.04"/>
    </edge>
    <edge id=":1_11" function="internal">
        <lane id=":1_11_0" index="0" speed="3.65" length="1.44" shape="580.46,606.98 579.96,608.34"/>
    </edge>
    <edge id=":1_18" function="internal">
        <lane id=":1_18_0" index="0" speed="8.41" length="10.92" shape="580.65,611.04 579.62,613.90 577.07,616.36 573.11,618.14"/>
    </edge>
    <edge id=":1_19" function="internal">
        <lane id=":1_19_0" index="0" speed="3.65" length="3.23" shape="579.96,608.34 579.28,608.91 578.41,608.71 577.35,607.73"/>
    </edge>
    <edge id=":1_12" function="internal">
        <lane id=":1_12_0" index="0" speed="7.00" length="10.09" shape="572.16,615.08 574.91,613.87 576.70,612.24 577.51,610.19 577.35,607.73"/>
    </edge>
    <edge id=":1_13" function="internal">
        <lane id=":1_13_0" index="0" speed="13.89" length="16.03" shape="572.16,615.08 575.95,614.08 579.99,613.34 584.07,612.90 587.97,612.84"/>
    </edge>
    <edge id=":1_14" function="internal">
        <lane id=":1_14_0" index="0" speed="7.59" length="15.41" shape="572.16,615.08 576.52,614.38 579.66,615.37 581.58,618.05 582.27,622.41"/>
    </edge>
    <edge id=":1_15" function="internal">
        <lane id=":1_15_0" index="0" speed="3.65" length="4.67" shape="572.16,615.08 573.55,615.49 574.17,616.14 574.02,617.02 573.11,618.14"/>
    </edge>
    <edge id=":10_0" function="internal">
        <lane id=":10_0_0" index="0" speed="7.22" length="11.51" shape="446.48,665.26 443.66,663.21 441.04,662.42 438.62,662.91 436.41,664.66"/>
    </edge>
    <edge id=":10_1" function="internal">
        <lane id=":10_1_0" index="0" speed="13.89" length="17.09" shape="446.48,665.26 443.40,662.59 439.87,659.84 436.21,657.28 432.73,655.16"/>
    </edge>
    <edge id=":10_2" function="internal">
        <lane id=":10_2_0" index="0" speed="7.40" length="4.32" shape="446.48,665.26 443.71,661.95"/>
    </edge>
    <edge id=":10_3" function="internal">
        <lane id=":10_3_0" index="0" speed="3.65" length="1.44" shape="446.48,665.26 446.14,663.86"/>
    </edge>
    <edge id=":10_16" function="internal">
        <lane id=":10_16_0" index="0" speed="7.40" length="12.52" shape="443.71,661.95 443.24,661.37 442.60,658.08 444.58,655.37 449.18,653.25"/>
    </edge>
    <edge id=":10_17" function="internal">
        <lane id=":10_17_0" index="0" speed="3.65" length="3.23" shape="446.14,663.86 446.39,663.00 447.22,662.68 448.65,662.90"/>
    </edge>
    <edge id=":10_4" function="internal">
        <lane id=":10_4_0" index="0" speed="5.66" length="9.24" shape="450.13,656.30 447.60,657.47 446.52,658.96 446.86,660.77 448.65,662.90"/>
    </edge>
    <edge id=":10_5" function="internal">
        <lane id=":10_5_0" index="0" speed="13.89" length="16.22" shape="450.13,656.30 446.43,657.71 442.72,659.63 439.28,661.98 436.41,664.66"/>
    </edge>
    <edge id=":10_6" function="internal">
        <lane id=":10_6_0" index="0" speed="13.57" length="17.72" shape="450.13,656.30 445.88,657.06 441.02,657.08 436.37,656.43 432.73,655.16"/>
    </edge>
    <edge id=":10_7" function="internal">
        <lane id=":10_7_0" index="0" speed="3.65" length="4.67" shape="450.13,656.30 448.74,655.89 448.12,655.25 448.27,654.37 449.18,653.25"/>
    </edge>
    <edge id=":10_8" function="internal">
        <lane id=":10_8_0" index="0" speed="12.65" length="15.33" shape="434.28,652.35 437.61,653.73 441.21,654.34 445.06,654.18 449.18,653.25"/>
    </edge>
    <edge id=":10_9" function="internal">
        <lane id=":10_9_0" index="0" speed="13.89" length="17.85" shape="434.28,652.35 437.85,654.54 441.72,657.26 445.46,660.16 448.65,662.90"/>
    </edge>
    <edge id=":10_10" function="internal">
        <lane id=":10_10_0" index="0" speed="7.66" length="4.68" shape="434.28,652.35 437.69,654.93 437.87,655.28"/>
    </edge>
    <edge id=":10_11" function="internal">
        <lane id=":10_11_0" index="0" speed="3.65" length="1.44" shape="434.28,652.35 434.94,653.63"/>
    </edge>
    <edge id=":10_18" function="internal">
        <lane id=":10_18_0" index="0" speed="7.66" length="10.43" shape="437.87,655.28 439.19,657.84 438.76,661.08 436.41,664.66"/>
    </edge>
    <edge id=":10_19" function="internal">
        <lane id=":10_19_0" index="0" speed="3.65" length="3.23" shape="434.94,653.63 434.91,654.53 434.17,655.03 432.73,655.16"/>
    </edge>
    <edge id=":10_12" function="internal">
        <lane id=":10_12_0" index="0" speed="6.08" length="9.06" shape="434.02,662.54 435.43,660.40 435.68,658.45 434.78,656.70 432.73,655.16"/>
    </edge>
    <edge id=":10_13" function="internal">
        <lane id=":10_13_0" index="0" speed="13.89" length="17.94" shape="434.02,662.54 437.11,659.72 441.05,657.04 445.26,654.80 449.18,653.25"/>
    </edge>
    <edge id=":10_14" function="internal">
        <lane id=":10_14_0" index="0" speed="8.36" length="15.81" shape="434.02,662.54 437.14,660.61 441.18,660.13 445.29,660.94 448.65,662.90"/>
    </edge>
    <edge id=":10_15" function="internal">
        <lane id=":10_15_0" index="0" speed="3.65" length="4.67" shape="434.02,662.54 435.41,662.17 436.27,662.40 436.61,663.23 436.41,664.66"/>
    </edge>
    <edge id=":106_0" function="internal">
        <lane id=":106_0_0" index="0" speed="13.89" length="19.57" shape="852.11,498.94 848.38,496.53 843.52,494.34 838.45,492.67 834.07,491.86"/>
    </edge>
    <edge id=":106_1" function="internal">
        <lane id=":106_1_0" index="0" speed="13.89" length="21.65" shape="852.11,498.94 848.60,495.69 844.38,491.37 840.32,486.90 837.27,483.22"/>
    </edge>
    <edge id=":106_2" function="internal">
        <lane id=":106_2_0" index="0" speed="7.38" length="5.80" shape="852.11,498.94 848.41,494.95 848.33,494.60"/>
    </edge>
    <edge id=":106_3" function="internal">
        <lane id=":106_3_0" index="0" speed="3.65" length="1.44" shape="852.11,498.94 851.71,497.56"/>
    </edge>
    <edge id=":106_16" function="internal">
        <lane id=":106_16_0" index="0" speed="7.38" length="11.88" shape="848.33,494.60 847.64,491.64 849.80,489.02 854.88,487.09"/>
    </edge>
    <edge id=":106_17" function="internal">
        <lane id=":106_17_0" index="0" speed="3.65" length="3.23" shape="851.71,497.56 851.91,496.69 852.73,496.33 854.17,496.49"/>
    </edge>
    <edge id=":106_4" function="internal">
        <lane id=":106_4_0" index="0" speed="5.57" length="9.39" shape="855.64,490.19 852.94,491.22 851.79,492.62 852.20,494.37 854.17,496.49"/>
    </edge>
    <edge id=":106_5" function="internal">
        <lane id=":106_5_0" index="0" speed="13.89" length="21.68" shape="855.64,490.19 850.92,491.01 844.90,491.61 838.86,491.92 834.07,491.86"/>
    </edge>
    <edge id=":106_6" function="internal">
        <lane id=":106_6_0" index="0" speed="11.50" length="20.91" shape="855.64,490.19 850.35,490.77 845.52,489.79 841.16,487.28 837.27,483.22"/>
    </edge>
    <edge id=":106_7" function="internal">
        <lane id=":106_7_0" index="0" speed="3.65" length="4.67" shape="855.64,490.19 854.29,489.70 853.71,489.02 853.91,488.15 854.88,487.09"/>
    </edge>
    <edge id=":106_8" function="internal">
        <lane id=":106_8_0" index="0" speed="10.46" length="17.17" shape="839.82,481.28 843.03,484.64 846.61,486.73 850.56,487.54 854.88,487.09"/>
    </edge>
    <edge id=":106_9" function="internal">
        <lane id=":106_9_0" index="0" speed="13.89" length="20.93" shape="839.82,481.28 842.80,484.89 846.69,489.18 850.73,493.32 854.17,496.49"/>
    </edge>
    <edge id=":106_10" function="internal">
        <lane id=":106_10_0" index="0" speed="7.39" length="4.41" shape="839.82,481.28 842.05,485.09"/>
    </edge>
    <edge id=":106_11" function="internal">
        <lane id=":106_11_0" index="0" speed="3.65" length="1.44" shape="839.82,481.28 839.91,482.72"/>
    </edge>
    <edge id=":106_18" function="internal">
        <lane id=":106_18_0" index="0" speed="7.39" length="14.14" shape="842.05,485.09 842.77,486.31 842.79,489.75 839.89,491.60 834.07,491.86"/>
    </edge>
    <edge id=":106_19" function="internal">
        <lane id=":106_19_0" index="0" speed="3.65" length="3.23" shape="839.91,482.72 839.51,483.53 838.63,483.69 837.27,483.22"/>
    </edge>
    <edge id=":106_12" function="internal">
        <lane id=":106_12_0" index="0" speed="5.51" length="9.56" shape="834.30,488.67 837.31,488.54 838.80,487.58 838.79,485.81 837.27,483.22"/>
    </edge>
    <edge id=":106_13" function="internal">
        <lane id=":106_13_0" index="0" speed="13.89" length="20.69" shape="834.30,488.67 838.94,488.75 844.64,488.46 850.32,487.88 854.88,487.09"/>
    </edge>
    <edge id=":106_14" function="internal">
        <lane id=":106_14_0" index="0" speed="13.89" length="21.52" shape="834.30,488.67 838.97,489.60 844.67,491.51 850.15,493.97 854.17,496.49"/>
    </edge>
    <edge id=":106_15" function="internal">
        <lane id=":106_15_0" index="0" speed="3.65" length="4.67" shape="834.30,488.67 835.44,489.56 835.78,490.39 835.32,491.15 834.07,491.86"/>
    </edge>
    <edge id=":111_0" function="internal">
        <lane id=":111_0_0" index="0" speed="13.89" length="18.01" shape="350.26,416.35 347.16,419.25 344.09,422.97 341.58,427.04 340.17,430.96"/>
    </edge>
    <edge id=":111_1" function="internal">
        <lane id=":111_1_0" index="0" speed="13.89" length="20.41" shape="350.26,416.35 346.44,418.93 341.51,421.64 336.38,423.90 331.99,425.16"/>
    </edge>
    <edge id=":111_2" function="internal">
        <lane id=":111_2_0" index="0" speed="7.42" length="19.18" shape="350.26,416.35 345.06,419.58 341.59,419.70 339.83,416.70 339.79,410.58"/>
    </edge>
    <edge id=":111_3" function="internal">
        <lane id=":111_3_0" index="0" speed="3.65" length="4.67" shape="350.26,416.35 348.82,416.47 348.01,416.09 347.83,415.22 348.27,413.84"/>
    </edge>
    <edge id=":111_4" function="internal">
        <lane id=":111_4_0" index="0" speed="5.48" length="9.71" shape="342.98,410.92 343.00,414.02 343.89,415.54 345.64,415.48 348.27,413.84"/>
    </edge>
    <edge id=":111_5" function="internal">
        <lane id=":111_5_0" index="0" speed="13.89" length="20.23" shape="342.98,410.92 340.17,430.96"/>
    </edge>
    <edge id=":111_6" function="internal">
        <lane id=":111_6_0" index="0" speed="10.30" length="6.61" shape="342.98,410.92 341.78,416.61 341.41,417.31"/>
    </edge>
    <edge id=":111_7" function="internal">
        <lane id=":111_7_0" index="0" speed="3.65" length="1.44" shape="342.98,410.92 342.05,412.03"/>
    </edge>
    <edge id=":111_16" function="internal">
        <lane id=":111_16_0" index="0" speed="10.30" length="12.88" shape="341.41,417.31 339.55,420.87 336.28,423.72 331.99,425.16"/>
    </edge>
    <edge id=":111_17" function="internal">
        <lane id=":111_17_0" index="0" speed="3.65" length="3.23" shape="342.05,412.03 341.22,412.34 340.46,411.86 339.79,410.58"/>
    </edge>
    <edge id=":111_8" function="internal">
        <lane id=":111_8_0" index="0" speed="9.17" length="15.25" shape="331.51,421.99 334.72,420.88 337.17,418.60 338.86,415.17 339.79,410.58"/>
    </edge>
    <edge id=":111_9" function="internal">
        <lane id=":111_9_0" index="0" speed="13.89" length="18.77" shape="331.51,421.99 335.66,420.84 340.27,418.80 344.69,416.32 348.27,413.84"/>
    </edge>
    <edge id=":111_10" function="internal">
        <lane id=":111_10_0" index="0" speed="7.54" length="15.65" shape="331.51,421.99 336.04,421.95 338.99,423.43 340.36,426.43 340.17,430.96"/>
    </edge>
    <edge id=":111_11" function="internal">
        <lane id=":111_11_0" index="0" speed="3.65" length="4.67" shape="331.51,421.99 332.82,422.61 333.33,423.34 333.05,424.19 331.99,425.16"/>
    </edge>
    <edge id=":111_12" function="internal">
        <lane id=":111_12_0" index="0" speed="5.91" length="9.10" shape="337.02,430.37 337.14,427.74 336.34,426.00 334.62,425.14 331.99,425.16"/>
    </edge>
    <edge id=":111_13" function="internal">
        <lane id=":111_13_0" index="0" speed="13.89" length="19.98" shape="337.02,430.37 339.79,410.58"/>
    </edge>
    <edge id=":111_14" function="internal">
        <lane id=":111_14_0" index="0" speed="13.89" length="3.27" shape="337.02,430.37 338.18,427.31"/>
    </edge>
    <edge id=":111_15" function="internal">
        <lane id=":111_15_0" index="0" speed="3.65" length="1.44" shape="337.02,430.37 338.03,429.34"/>
    </edge>
    <edge id=":111_18" function="internal">
        <lane id=":111_18_0" index="0" speed="13.89" length="16.96" shape="338.18,427.31 338.61,426.15 341.52,421.43 344.99,417.04 348.27,413.84"/>
    </edge>
    <edge id=":111_19" function="internal">
        <lane id=":111_19_0" index="0" speed="3.65" length="3.23" shape="338.03,429.34 338.89,429.09 339.60,429.63 340.17,430.96"/>
    </edge>
    <edge id=":117_0" function="internal">
        <lane id=":117_0_0" index="0" speed="6.11" length="6.79" shape="668.17,1041.85 666.42,1042.38 664.85,1042.29 663.45,1041.57 662.22,1040.23"/>
    </edge>
    <edge id=":117_1" function="internal">
        <lane id=":117_1_0" index="0" speed="3.92" length="2.26" shape="664.84,1038.40 665.25,1038.85 665.72,1039.09 666.25,1039.12 666.83,1038.94"/>
    </edge>
    <edge id=":12_0" function="internal">
        <lane id=":12_0_0" index="0" speed="13.89" length="19.94" shape="658.77,486.75 655.78,483.37 651.66,479.79 647.21,476.63 643.22,474.51"/>
    </edge>
    <edge id=":12_1" function="internal">
        <lane id=":12_1_0" index="0" speed="13.89" length="21.87" shape="658.77,486.75 656.24,482.64 653.38,477.24 650.77,471.71 648.98,467.23"/>
    </edge>
    <edge id=":12_2" function="internal">
        <lane id=":12_2_0" index="0" speed="10.23" length="6.14" shape="658.77,486.75 656.26,481.88 656.18,481.21"/>
    </edge>
    <edge id=":12_3" function="internal">
        <lane id=":12_3_0" index="0" speed="7.40" length="6.17" shape="658.77,486.75 656.10,481.76 656.12,481.24"/>
    </edge>
    <edge id=":12_4" function="internal">
        <lane id=":12_4_0" index="0" speed="3.65" length="1.44" shape="658.77,486.75 658.73,485.31"/>
    </edge>
    <edge id=":12_25" function="internal">
        <lane id=":12_25_0" index="0" speed="10.23" length="14.43" shape="656.18,481.21 655.70,477.15 657.09,472.57 660.42,468.13"/>
    </edge>
    <edge id=":12_26" function="internal">
        <lane id=":12_26_0" index="0" speed="7.40" length="12.10" shape="656.12,481.24 656.24,478.34 659.17,476.50 664.90,476.23"/>
    </edge>
    <edge id=":12_27" function="internal">
        <lane id=":12_27_0" index="0" speed="3.65" length="3.23" shape="658.73,485.31 659.15,484.52 660.04,484.39 661.38,484.91"/>
    </edge>
    <edge id=":12_5" function="internal">
        <lane id=":12_5_0" index="0" speed="5.55" length="9.59" shape="664.67,479.43 661.64,479.56 660.08,480.52 660.00,482.30 661.38,484.91"/>
    </edge>
    <edge id=":12_6" function="internal">
        <lane id=":12_6_0" index="0" speed="13.89" length="22.04" shape="664.67,479.43 659.86,478.76 653.82,477.52 647.83,476.01 643.22,474.51"/>
    </edge>
    <edge id=":12_7" function="internal">
        <lane id=":12_7_0" index="0" speed="11.46" length="21.19" shape="664.67,479.43 659.20,478.33 654.76,475.94 651.36,472.23 648.98,467.23"/>
    </edge>
    <edge id=":12_8" function="internal">
        <lane id=":12_8_0" index="0" speed="7.39" length="18.36" shape="664.67,479.43 659.02,478.32 656.43,476.07 656.90,472.68 660.42,468.13"/>
    </edge>
    <edge id=":12_9" function="internal">
        <lane id=":12_9_0" index="0" speed="3.65" length="4.67" shape="664.67,479.43 663.53,478.54 663.19,477.71 663.64,476.94 664.90,476.23"/>
    </edge>
    <edge id=":12_10" function="internal">
        <lane id=":12_10_0" index="0" speed="5.52" length="9.53" shape="662.70,470.37 660.87,472.73 660.63,474.50 661.97,475.66 664.90,476.23"/>
    </edge>
    <edge id=":12_11" function="internal">
        <lane id=":12_11_0" index="0" speed="9.09" length="16.06" shape="662.70,470.37 660.09,473.84 659.00,477.42 659.43,481.11 661.38,484.91"/>
    </edge>
    <edge id=":12_12" function="internal">
        <lane id=":12_12_0" index="0" speed="11.52" length="21.21" shape="662.70,470.37 658.32,473.83 653.62,475.67 648.59,475.90 643.22,474.51"/>
    </edge>
    <edge id=":12_13" function="internal">
        <lane id=":12_13_0" index="0" speed="7.89" length="18.75" shape="662.70,470.37 658.27,473.79 654.51,474.41 651.42,472.22 648.98,467.23"/>
    </edge>
    <edge id=":12_14" function="internal">
        <lane id=":12_14_0" index="0" speed="3.65" length="4.67" shape="662.70,470.37 661.28,470.67 660.43,470.39 660.14,469.54 660.42,468.13"/>
    </edge>
    <edge id=":12_15" function="internal">
        <lane id=":12_15_0" index="0" speed="6.30" length="11.47" shape="652.03,466.23 653.51,469.28 655.41,470.61 657.71,470.23 660.42,468.13"/>
    </edge>
    <edge id=":12_16" function="internal">
        <lane id=":12_16_0" index="0" speed="10.42" length="17.39" shape="652.03,466.23 653.97,470.34 656.77,473.37 660.41,475.34 664.90,476.23"/>
    </edge>
    <edge id=":12_17" function="internal">
        <lane id=":12_17_0" index="0" speed="13.89" length="20.93" shape="652.03,466.23 653.74,470.58 656.21,475.82 658.93,480.93 661.38,484.91"/>
    </edge>
    <edge id=":12_18" function="internal">
        <lane id=":12_18_0" index="0" speed="7.38" length="3.93" shape="652.03,466.23 652.80,470.08"/>
    </edge>
    <edge id=":12_19" function="internal">
        <lane id=":12_19_0" index="0" speed="3.65" length="1.44" shape="652.03,466.23 651.64,467.62"/>
    </edge>
    <edge id=":12_28" function="internal">
        <lane id=":12_28_0" index="0" speed="7.38" length="14.34" shape="652.80,470.08 653.14,471.83 652.05,475.08 648.74,475.97 643.22,474.51"/>
    </edge>
    <edge id=":12_29" function="internal">
        <lane id=":12_29_0" index="0" speed="3.65" length="3.23" shape="651.64,467.62 651.00,468.25 650.12,468.12 648.98,467.23"/>
    </edge>
    <edge id=":12_20" function="internal">
        <lane id=":12_20_0" index="0" speed="5.52" length="9.51" shape="644.41,471.54 647.28,472.29 649.00,471.83 649.57,470.14 648.98,467.23"/>
    </edge>
    <edge id=":12_21" function="internal">
        <lane id=":12_21_0" index="0" speed="10.48" length="17.44" shape="644.41,471.54 648.81,472.68 652.95,472.49 656.82,470.97 660.42,468.13"/>
    </edge>
    <edge id=":12_22" function="internal">
        <lane id=":12_22_0" index="0" speed="13.89" length="21.07" shape="644.41,471.54 648.87,473.00 654.52,474.44 660.25,475.61 664.90,476.23"/>
    </edge>
    <edge id=":12_23" function="internal">
        <lane id=":12_23_0" index="0" speed="13.89" length="21.76" shape="644.41,471.54 648.61,473.83 653.56,477.38 658.17,481.35 661.38,484.91"/>
    </edge>
    <edge id=":12_24" function="internal">
        <lane id=":12_24_0" index="0" speed="3.65" length="4.67" shape="644.41,471.54 645.22,472.72 645.30,473.61 644.63,474.21 643.22,474.51"/>
    </edge>
    <edge id=":14_0" function="internal">
        <lane id=":14_0_0" index="0" speed="6.67" length="11.37" shape="485.84,320.17 483.95,316.82 481.92,314.96 479.76,314.60 477.45,315.73"/>
    </edge>
    <edge id=":14_1" function="internal">
        <lane id=":14_1_0" index="0" speed="7.39" length="18.50" shape="485.84,320.17 484.13,314.62 484.89,311.27 488.13,310.12 493.85,311.17"/>
    </edge>
    <edge id=":14_2" function="internal">
        <lane id=":14_2_0" index="0" speed="3.65" length="4.67" shape="485.84,320.17 486.09,318.75 486.66,318.06 487.55,318.10 488.77,318.88"/>
    </edge>
    <edge id=":14_3" function="internal">
        <lane id=":14_3_0" index="0" speed="5.51" length="9.56" shape="492.90,314.23 489.95,313.68 488.28,314.28 487.88,316.01 488.77,318.88"/>
    </edge>
    <edge id=":14_4" function="internal">
        <lane id=":14_4_0" index="0" speed="11.39" length="16.15" shape="492.90,314.23 488.28,313.19 484.17,313.09 480.56,313.94 477.45,315.73"/>
    </edge>
    <edge id=":14_5" function="internal">
        <lane id=":14_5_0" index="0" speed="3.65" length="1.44" shape="492.90,314.23 491.99,313.11"/>
    </edge>
    <edge id=":14_9" function="internal">
        <lane id=":14_9_0" index="0" speed="3.65" length="3.23" shape="491.99,313.11 491.85,312.22 492.47,311.58 493.85,311.17"/>
    </edge>
    <edge id=":14_6" function="internal">
        <lane id=":14_6_0" index="0" speed="12.41" length="19.25" shape="475.46,313.22 479.25,311.00 483.58,309.92 488.44,309.98 493.85,311.17"/>
    </edge>
    <edge id=":14_7" function="internal">
        <lane id=":14_7_0" index="0" speed="8.13" length="5.45" shape="475.46,313.22 479.29,311.20 480.41,311.29"/>
    </edge>
    <edge id=":14_8" function="internal">
        <lane id=":14_8_0" index="0" speed="3.65" length="1.44" shape="475.46,313.22 476.90,313.10"/>
    </edge>
    <edge id=":14_10" function="internal">
        <lane id=":14_10_0" index="0" speed="8.13" length="12.05" shape="480.41,311.29 482.79,311.47 485.94,314.03 488.77,318.88"/>
    </edge>
    <edge id=":14_11" function="internal">
        <lane id=":14_11_0" index="0" speed="3.65" length="3.23" shape="476.90,313.10 477.71,313.48 477.89,314.36 477.45,315.73"/>
    </edge>
    <edge id=":141_0" function="internal">
        <lane id=":141_0_0" index="0" speed="6.08" length="7.64" shape="491.98,973.79 489.91,974.07 488.24,973.63 486.96,972.46 486.07,970.57"/>
    </edge>
    <edge id=":141_1" function="internal">
        <lane id=":141_1_0" index="0" speed="3.91" length="2.55" shape="489.13,969.64 489.43,970.27 489.85,970.66 490.41,970.80 491.10,970.71"/>
    </edge>
    <edge id=":143_0" function="internal">
        <lane id=":143_0_0" index="0" speed="13.01" length="18.30" shape="914.90,897.22 913.86,901.73 911.92,905.73 909.10,909.20 905.38,912.15"/>
    </edge>
    <edge id=":143_1" function="internal">
        <lane id=":143_1_0" index="0" speed="7.52" length="6.10" shape="914.90,897.22 913.66,901.76 912.70,902.76"/>
    </edge>
    <edge id=":143_2" function="internal">
        <lane id=":143_2_0" index="0" speed="3.65" length="1.44" shape="914.90,897.22 913.96,898.31"/>
    </edge>
    <edge id=":143_9" function="internal">
        <lane id=":143_9_0" index="0" speed="7.52" length="10.18" shape="912.70,902.76 911.35,904.16 907.96,904.42 903.50,902.54"/>
    </edge>
    <edge id=":143_10" function="internal">
        <lane id=":143_10_0" index="0" speed="3.65" length="3.23" shape="913.96,898.31 913.11,898.61 912.37,898.11 911.73,896.82"/>
    </edge>
    <edge id=":143_3" function="internal">
        <lane id=":143_3_0" index="0" speed="5.86" length="9.35" shape="905.13,899.78 907.72,900.88 909.68,900.76 911.01,899.40 911.73,896.82"/>
    </edge>
    <edge id=":143_4" function="internal">
        <lane id=":143_4_0" index="0" speed="7.44" length="16.39" shape="905.13,899.78 908.94,902.80 910.25,905.87 909.06,908.99 905.38,912.15"/>
    </edge>
    <edge id=":143_5" function="internal">
        <lane id=":143_5_0" index="0" speed="3.65" length="4.67" shape="905.13,899.78 905.76,901.08 905.70,901.97 904.94,902.46 903.50,902.54"/>
    </edge>
    <edge id=":143_6" function="internal">
        <lane id=":143_6_0" index="0" speed="5.74" length="9.18" shape="903.64,909.47 905.71,907.69 906.37,905.95 905.64,904.23 903.50,902.54"/>
    </edge>
    <edge id=":143_7" function="internal">
        <lane id=":143_7_0" index="0" speed="12.00" length="15.50" shape="903.64,909.47 906.80,906.96 909.20,904.02 910.84,900.64 911.73,896.82"/>
    </edge>
    <edge id=":143_8" function="internal">
        <lane id=":143_8_0" index="0" speed="3.65" length="1.34" shape="903.64,909.47 904.98,909.48"/>
    </edge>
    <edge id=":143_11" function="internal">
        <lane id=":143_11_0" index="0" speed="3.65" length="3.33" shape="904.98,909.48 905.08,909.49 905.85,909.94 905.95,910.83 905.38,912.15"/>
    </edge>
    <edge id=":151_0" function="internal">
        <lane id=":151_0_0" index="0" speed="6.63" length="9.03" shape="796.83,988.61 795.39,986.61 793.65,985.52 791.60,985.32 789.25,986.03"/>
    </edge>
    <edge id=":151_1" function="internal">
        <lane id=":151_1_0" index="0" speed="13.89" length="16.53" shape="796.83,988.61 795.22,984.97 793.90,980.90 792.91,976.74 792.26,972.79"/>
    </edge>
    <edge id=":151_2" function="internal">
        <lane id=":151_2_0" index="0" speed="8.70" length="15.78" shape="796.83,988.61 795.65,984.95 796.08,981.53 798.11,978.32 801.74,975.34"/>
    </edge>
    <edge id=":151_3" function="internal">
        <lane id=":151_3_0" index="0" speed="3.65" length="4.67" shape="796.83,988.61 796.98,987.17 797.50,986.44 798.39,986.43 799.66,987.12"/>
    </edge>
    <edge id=":151_4" function="internal">
        <lane id=":151_4_0" index="0" speed="7.34" length="10.96" shape="803.48,978.03 800.84,980.16 799.32,982.38 798.93,984.70 799.66,987.12"/>
    </edge>
    <edge id=":151_5" function="internal">
        <lane id=":151_5_0" index="0" speed="13.89" length="16.34" shape="803.48,978.03 800.13,980.13 796.49,982.26 792.80,984.28 789.25,986.03"/>
    </edge>
    <edge id=":151_6" function="internal">
        <lane id=":151_6_0" index="0" speed="7.44" length="4.83" shape="803.48,978.03 799.11,980.08"/>
    </edge>
    <edge id=":151_7" function="internal">
        <lane id=":151_7_0" index="0" speed="3.65" length="1.44" shape="803.48,978.03 802.04,978.01"/>
    </edge>
    <edge id=":151_16" function="internal">
        <lane id=":151_16_0" index="0" speed="7.44" length="11.49" shape="799.11,980.08 795.78,979.89 793.50,977.46 792.26,972.79"/>
    </edge>
    <edge id=":151_17" function="internal">
        <lane id=":151_17_0" index="0" speed="3.65" length="3.23" shape="802.04,978.01 801.27,977.56 801.17,976.67 801.74,975.34"/>
    </edge>
    <edge id=":151_8" function="internal">
        <lane id=":151_8_0" index="0" speed="5.75" length="9.17" shape="795.44,972.40 796.13,975.02 797.42,976.39 799.29,976.49 801.74,975.34"/>
    </edge>
    <edge id=":151_9" function="internal">
        <lane id=":151_9_0" index="0" speed="13.89" length="15.39" shape="795.44,972.40 796.03,976.17 796.91,979.96 798.11,983.65 799.66,987.12"/>
    </edge>
    <edge id=":151_10" function="internal">
        <lane id=":151_10_0" index="0" speed="9.64" length="16.11" shape="795.44,972.40 795.52,977.07 794.52,980.90 792.43,983.89 789.25,986.03"/>
    </edge>
    <edge id=":151_11" function="internal">
        <lane id=":151_11_0" index="0" speed="3.65" length="4.67" shape="795.44,972.40 794.79,973.69 794.05,974.19 793.20,973.89 792.26,972.79"/>
    </edge>
    <edge id=":151_12" function="internal">