<?xml version="1.0" encoding="UTF-8"?>

<!-- generated on 2026-04-16T17:52:32.022902-08:00 by Eclipse SUMO netgenerate 1.26.0
<netgenerateConfiguration xmlns:xsi="http://www.w3.org/2001/XMLSchema-instance" xsi:noNamespaceSchemaLocation="http://sumo.dlr.de/xsd/netgenerateConfiguration.xsd">

    <spider_network>
        <spider value="true"/>
        <spider.arm-number value="5"/>
        <spider.circle-number value="2"/>
    </spider_network>

    <output>
        <output-file value="D:\research project\NeurIPS\logic building\Meta-MOHRL- Antigravity code building\sumo_configs\15_topologies\topo_07_asymmetric_arterial_D.net.xml"/>
    </output>

</netgenerateConfiguration>
-->

<net version="1.20" junctionCornerDetail="5" limitTurnSpeed="5.50" xmlns:xsi="http://www.w3.org/2001/XMLSchema-instance" xsi:noNamespaceSchemaLocation="http://sumo.dlr.de/xsd/net_file.xsd">

    <location netOffset="161.80,190.21" convBoundary="0.00,0.00,361.80,380.42" origBoundary="-161.80,-190.21,200.00,190.21" projParameter="!"/>

    <edge id=":A1_0" function="internal">
        <lane id=":A1_0_0" index="0" speed="5.93" length="9.10" shape="162.88,198.70 161.72,196.34 160.18,195.18 158.26,195.22 155.94,196.44"/>
    </edge>
    <edge id=":A1_1" function="internal">
        <lane id=":A1_1_0" index="0" speed="13.89" length="15.22" shape="162.88,198.70 161.42,195.21 159.41,191.95 156.93,189.03 154.06,186.56"/>
    </edge>
    <edge id=":A1_2" function="internal">
        <lane id=":A1_2_0" index="0" speed="13.89" length="17.18" shape="162.88,198.70 162.01,194.71 161.72,190.21 162.01,185.71 162.88,181.72"/>
    </edge>
    <edge id=":A1_3" function="internal">
        <lane id=":A1_3_0" index="0" speed="7.15" length="13.80" shape="162.88,198.70 162.89,195.45 164.50,192.17 167.13,189.63 170.20,188.61"/>
    </edge>
    <edge id=":A1_4" function="internal">
        <lane id=":A1_4_0" index="0" speed="3.65" length="4.67" shape="162.88,198.70 163.27,197.31 163.90,196.68 164.79,196.81 165.92,197.71"/>
    </edge>
    <edge id=":A1_5" function="internal">
        <lane id=":A1_5_0" index="0" speed="5.93" length="9.09" shape="170.20,191.81 167.61,192.18 166.03,193.28 165.47,195.13 165.92,197.71"/>
    </edge>
    <edge id=":A1_6" function="internal">
        <lane id=":A1_6_0" index="0" speed="13.89" length="15.22" shape="170.20,191.81 166.44,192.12 162.72,193.03 159.17,194.48 155.94,196.44"/>
    </edge>
    <edge id=":A1_7" function="internal">
        <lane id=":A1_7_0" index="0" speed="13.89" length="17.18" shape="170.20,191.81 166.14,191.40 161.77,190.29 157.59,188.62 154.06,186.56"/>
    </edge>
    <edge id=":A1_8" function="internal">
        <lane id=":A1_8_0" index="0" speed="7.15" length="13.80" shape="170.20,191.81 167.13,190.79 164.50,188.25 162.89,184.97 162.88,181.72"/>
    </edge>
    <edge id=":A1_9" function="internal">
        <lane id=":A1_9_0" index="0" speed="3.65" length="4.67" shape="170.20,191.81 169.00,191.01 168.60,190.21 169.00,189.41 170.20,188.61"/>
    </edge>
    <edge id=":A1_10" function="internal">
        <lane id=":A1_10_0" index="0" speed="5.93" length="9.09" shape="165.92,182.71 165.47,185.29 166.03,187.14 167.61,188.24 170.20,188.61"/>
    </edge>
    <edge id=":A1_11" function="internal">
        <lane id=":A1_11_0" index="0" speed="13.89" length="15.22" shape="165.92,182.71 165.05,186.39 164.76,190.21 165.05,194.03 165.92,197.71"/>
    </edge>
    <edge id=":A1_12" function="internal">
        <lane id=":A1_12_0" index="0" speed="13.89" length="17.18" shape="165.92,182.71 164.28,186.45 161.87,190.26 158.99,193.73 155.94,196.44"/>
    </edge>
    <edge id=":A1_13" function="internal">
        <lane id=":A1_13_0" index="0" speed="7.15" length="13.80" shape="165.92,182.71 164.00,185.32 160.77,187.04 157.15,187.55 154.06,186.56"/>
    </edge>
    <edge id=":A1_14" function="internal">
        <lane id=":A1_14_0" index="0" speed="3.65" length="4.67" shape="165.92,182.71 164.79,183.61 163.90,183.74 163.27,183.11 162.88,181.72"/>
    </edge>
    <edge id=":A1_15" function="internal">
        <lane id=":A1_15_0" index="0" speed="5.93" length="9.10" shape="155.94,183.98 158.26,185.20 160.18,185.24 161.72,184.08 162.88,181.72"/>
    </edge>
    <edge id=":A1_16" function="internal">
        <lane id=":A1_16_0" index="0" speed="13.89" length="15.22" shape="155.94,183.98 159.17,185.94 162.72,187.39 166.44,188.30 170.20,188.61"/>
    </edge>
    <edge id=":A1_17" function="internal">
        <lane id=":A1_17_0" index="0" speed="13.89" length="17.18" shape="155.94,183.98 158.99,186.69 161.87,190.16 164.28,193.97 165.92,197.71"/>
    </edge>
    <edge id=":A1_18" function="internal">
        <lane id=":A1_18_0" index="0" speed="7.15" length="13.80" shape="155.94,183.98 157.83,186.61 158.46,190.21 157.83,193.81 155.94,196.44"/>
    </edge>
    <edge id=":A1_19" function="internal">
        <lane id=":A1_19_0" index="0" speed="3.65" length="4.67" shape="155.94,183.98 156.44,185.33 156.30,186.21 155.50,186.62 154.06,186.56"/>
    </edge>
    <edge id=":A1_20" function="internal">
        <lane id=":A1_20_0" index="0" speed="5.93" length="9.09" shape="154.06,193.86 155.94,192.03 156.57,190.21 155.94,188.39 154.06,186.56"/>
    </edge>
    <edge id=":A1_21" function="internal">
        <lane id=":A1_21_0" index="0" speed="13.89" length="15.22" shape="154.06,193.86 156.93,191.39 159.41,188.47 161.42,185.21 162.88,181.72"/>
    </edge>
    <edge id=":A1_22" function="internal">
        <lane id=":A1_22_0" index="0" speed="13.89" length="17.18" shape="154.06,193.86 157.59,191.80 161.77,190.13 166.14,189.02 170.20,188.61"/>
    </edge>
    <edge id=":A1_23" function="internal">
        <lane id=":A1_23_0" index="0" speed="7.15" length="13.80" shape="154.06,193.86 157.15,192.87 160.77,193.38 164.00,195.10 165.92,197.71"/>
    </edge>
    <edge id=":A1_24" function="internal">
        <lane id=":A1_24_0" index="0" speed="3.65" length="4.67" shape="154.06,193.86 155.50,193.80 156.30,194.21 156.44,195.09 155.94,196.44"/>
    </edge>
    <edge id=":B1_0" function="internal">
        <lane id=":B1_0_0" index="0" speed="10.58" length="13.31" shape="267.43,191.81 264.98,192.29 262.43,193.72 259.79,196.12 257.05,199.47"/>
    </edge>
    <edge id=":B1_1" function="internal">
        <lane id=":B1_1_0" index="0" speed="13.89" length="15.91" shape="267.43,191.81 251.52,191.81"/>
    </edge>
    <edge id=":B1_2" function="internal">
        <lane id=":B1_2_0" index="0" speed="11.67" length="3.52" shape="267.43,191.81 264.20,191.25 263.99,191.14"/>
    </edge>
    <edge id=":B1_3" function="internal">
        <lane id=":B1_3_0" index="0" speed="3.65" length="1.44" shape="267.43,191.81 266.23,191.01"/>
    </edge>
    <edge id=":B1_16" function="internal">
        <lane id=":B1_16_0" index="0" speed="11.67" length="12.80" shape="263.99,191.14 260.97,189.57 257.72,186.76 254.46,182.83"/>
    </edge>
    <edge id=":B1_17" function="internal">
        <lane id=":B1_17_0" index="0" speed="3.65" length="3.23" shape="266.23,191.01 265.83,190.21 266.23,189.41 267.43,188.61"/>
    </edge>
    <edge id=":B1_4" function="internal">
        <lane id=":B1_4_0" index="0" speed="10.58" length="13.31" shape="257.05,180.95 259.79,184.30 262.43,186.70 264.98,188.13 267.43,188.61"/>
    </edge>
    <edge id=":B1_5" function="internal">
        <lane id=":B1_5_0" index="0" speed="10.71" length="19.95" shape="257.05,180.95 259.57,185.58 260.42,190.21 259.57,194.84 257.05,199.47"/>
    </edge>
    <edge id=":B1_6" function="internal">
        <lane id=":B1_6_0" index="0" speed="7.38" length="17.63" shape="257.05,180.95 259.66,185.70 259.61,189.10 256.90,191.13 251.52,191.81"/>
    </edge>
    <edge id=":B1_7" function="internal">
        <lane id=":B1_7_0" index="0" speed="3.65" length="4.67" shape="257.05,180.95 257.11,182.39 256.70,183.19 255.82,183.33 254.46,182.83"/>
    </edge>
    <edge id=":B1_8" function="internal">
        <lane id=":B1_8_0" index="0" speed="5.57" length="9.38" shape="251.52,188.61 254.38,188.25 255.83,187.17 255.85,185.36 254.46,182.83"/>
    </edge>
    <edge id=":B1_9" function="internal">
        <lane id=":B1_9_0" index="0" speed="13.89" length="15.91" shape="251.52,188.61 267.43,188.61"/>
    </edge>
    <edge id=":B1_10" function="internal">
        <lane id=":B1_10_0" index="0" speed="7.38" length="5.28" shape="251.52,188.61 256.76,189.27"/>
    </edge>
    <edge id=":B1_11" function="internal">
        <lane id=":B1_11_0" index="0" speed="3.65" length="1.44" shape="251.52,188.61 252.72,189.41"/>
    </edge>
    <edge id=":B1_18" function="internal">
        <lane id=":B1_18_0" index="0" speed="7.38" length="12.35" shape="256.76,189.27 256.90,189.29 259.61,191.32 259.66,194.72 257.05,199.47"/>
    </edge>
    <edge id=":B1_19" function="internal">
        <lane id=":B1_19_0" index="0" speed="3.65" length="3.23" shape="252.72,189.41 253.12,190.21 252.72,191.01 251.52,191.81"/>
    </edge>
    <edge id=":B1_12" function="internal">
        <lane id=":B1_12_0" index="0" speed="5.57" length="9.38" shape="254.46,197.59 255.85,195.06 255.83,193.25 254.38,192.17 251.52,191.81"/>
    </edge>
    <edge id=":B1_13" function="internal">
        <lane id=":B1_13_0" index="0" speed="9.61" length="15.90" shape="254.46,197.59 256.47,193.90 257.14,190.21 256.47,186.52 254.46,182.83"/>
    </edge>
    <edge id=":B1_14" function="internal">
        <lane id=":B1_14_0" index="0" speed="11.67" length="16.32" shape="254.46,197.59 257.72,193.66 260.97,190.85 264.20,189.17 267.43,188.61"/>
    </edge>
    <edge id=":B1_15" function="internal">
        <lane id=":B1_15_0" index="0" speed="3.65" length="4.67" shape="254.46,197.59 255.82,197.09 256.70,197.23 257.11,198.03 257.05,199.47"/>
    </edge>
    <edge id=":B2_0" function="internal">
        <lane id=":B2_0_0" index="0" speed="10.58" length="13.31" shape="192.93,291.17 191.71,288.98 189.56,287.00 186.47,285.23 182.44,283.66"/>
    </edge>
    <edge id=":B2_1" function="internal">
        <lane id=":B2_1_0" index="0" speed="13.89" length="15.91" shape="192.93,291.17 188.01,276.04"/>
    </edge>
    <edge id=":B2_2" function="internal">
        <lane id=":B2_2_0" index="0" speed="11.67" length="3.52" shape="192.93,291.17 192.46,287.93 192.50,287.69"/>
    </edge>
    <edge id=":B2_3" function="internal">
        <lane id=":B2_3_0" index="0" speed="3.65" length="1.44" shape="192.93,291.17 193.32,289.78"/>
    </edge>
    <edge id=":B2_16" function="internal">
        <lane id=":B2_16_0" index="0" speed="11.67" length="12.80" shape="192.50,287.69 193.06,284.33 194.73,280.37 197.46,276.06"/>
    </edge>
    <edge id=":B2_17" function="internal">
        <lane id=":B2_17_0" index="0" speed="3.65" length="3.23" shape="193.32,289.78 193.96,289.15 194.84,289.29 195.97,290.18"/>
    </edge>
    <edge id=":B2_4" function="internal">
        <lane id=":B2_4_0" index="0" speed="10.58" length="13.31" shape="200.05,277.94 197.71,281.58 196.25,284.83 195.67,287.70 195.97,290.18"/>
    </edge>
    <edge id=":B2_5" function="internal">
        <lane id=":B2_5_0" index="0" speed="10.71" length="19.95" shape="200.05,277.94 196.42,281.77 192.28,284.00 187.62,284.63 182.44,283.66"/>
    </edge>
    <edge id=":B2_6" function="internal">
        <lane id=":B2_6_0" index="0" speed="7.38" length="17.63" shape="200.05,277.94 196.34,281.90 193.09,282.90 190.32,280.94 188.01,276.04"/>
    </edge>
    <edge id=":B2_7" function="internal">
        <lane id=":B2_7_0" index="0" speed="3.65" length="4.67" shape="200.05,277.94 198.69,278.44 197.81,278.30 197.40,277.50 197.46,276.06"/>
    </edge>
    <edge id=":B2_8" function="internal">
        <lane id=":B2_8_0" index="0" speed="5.57" length="9.38" shape="191.05,275.05 192.28,277.66 193.76,278.70 195.48,278.17 197.46,276.06"/>
    </edge>
    <edge id=":B2_9" function="internal">
        <lane id=":B2_9_0" index="0" speed="13.89" length="15.91" shape="191.05,275.05 195.97,290.18"/>
    </edge>
    <edge id=":B2_10" function="internal">
        <lane id=":B2_10_0" index="0" speed="7.38" length="5.28" shape="191.05,275.05 192.04,280.23"/>
    </edge>
    <edge id=":B2_11" function="internal">
        <lane id=":B2_11_0" index="0" speed="3.65" length="1.44" shape="191.05,275.05 190.66,276.44"/>
    </edge>
    <edge id=":B2_18" function="internal">
        <lane id=":B2_18_0" index="0" speed="7.38" length="12.35" shape="192.04,280.23 192.07,280.37 190.97,283.58 187.76,284.68 182.44,283.66"/>
    </edge>
    <edge id=":B2_19" function="internal">
        <lane id=":B2_19_0" index="0" speed="3.65" length="3.23" shape="190.66,276.44 190.03,277.06 189.14,276.93 188.01,276.04"/>
    </edge>
    <edge id=":B2_12" function="internal">
        <lane id=":B2_12_0" index="0" speed="5.57" length="9.38" shape="183.43,280.62 186.26,281.16 187.97,280.58 188.55,278.87 188.01,276.04"/>
    </edge>
    <edge id=":B2_13" function="internal">
        <lane id=":B2_13_0" index="0" speed="9.61" length="15.90" shape="183.43,280.62 187.56,281.39 191.27,280.89 194.57,279.11 197.46,276.06"/>
    </edge>
    <edge id=":B2_14" function="internal">
        <lane id=":B2_14_0" index="0" speed="11.67" length="16.32" shape="183.43,280.62 188.17,282.50 191.84,284.73 194.44,287.28 195.97,290.18"/>
    </edge>
    <edge id=":B2_15" function="internal">
        <lane id=":B2_15_0" index="0" speed="3.65" length="4.67" shape="183.43,280.62 184.32,281.75 184.45,282.64 183.83,283.27 182.44,283.66"/>
    </edge>
    <edge id=":B3_0" function="internal">
        <lane id=":B3_0_0" index="0" speed="10.58" length="13.31" shape="90.18,253.69 86.00,252.59 82.46,252.20 79.55,252.54 77.29,253.59"/>
    </edge>
    <edge id=":B3_1" function="internal">
        <lane id=":B3_1_0" index="0" speed="10.71" length="19.95" shape="90.18,253.69 85.42,251.43 82.02,248.18 79.98,243.94 79.30,238.71"/>
    </edge>
    <edge id=":B3_2" function="internal">
        <lane id=":B3_2_0" index="0" speed="7.38" length="17.63" shape="90.18,253.69 85.28,251.38 83.32,248.61 84.32,245.36 88.28,241.65"/>
    </edge>
    <edge id=":B3_3" function="internal">
        <lane id=":B3_3_0" index="0" speed="3.65" length="4.67" shape="90.18,253.69 89.29,252.56 89.16,251.67 89.78,251.04 91.17,250.65"/>
    </edge>
    <edge id=":B3_4" function="internal">
        <lane id=":B3_4_0" index="0" speed="5.57" length="9.38" shape="90.16,244.24 88.05,246.22 87.52,247.94 88.56,249.42 91.17,250.65"/>
    </edge>
    <edge id=":B3_5" function="internal">
        <lane id=":B3_5_0" index="0" speed="13.89" length="15.91" shape="90.16,244.24 77.29,253.59"/>
    </edge>
    <edge id=":B3_6" function="internal">
        <lane id=":B3_6_0" index="0" speed="7.38" length="5.28" shape="90.16,244.24 85.53,246.79"/>
    </edge>
    <edge id=":B3_7" function="internal">
        <lane id=":B3_7_0" index="0" speed="3.65" length="1.44" shape="90.16,244.24 88.72,244.30"/>
    </edge>
    <edge id=":B3_16" function="internal">
        <lane id=":B3_16_0" index="0" speed="7.38" length="12.35" shape="85.53,246.79 85.41,246.85 82.01,246.80 79.98,244.09 79.30,238.71"/>
    </edge>
    <edge id=":B3_17" function="internal">
        <lane id=":B3_17_0" index="0" speed="3.65" length="3.23" shape="88.72,244.30 87.92,243.89 87.78,243.01 88.28,241.65"/>
    </edge>
    <edge id=":B3_8" function="internal">
        <lane id=":B3_8_0" index="0" speed="5.57" length="9.38" shape="82.50,238.71 82.86,241.57 83.94,243.02 85.75,243.04 88.28,241.65"/>
    </edge>
    <edge id=":B3_9" function="internal">
        <lane id=":B3_9_0" index="0" speed="9.61" length="15.90" shape="82.50,238.71 83.04,242.87 84.67,246.25 87.38,248.84 91.17,250.65"/>
    </edge>
    <edge id=":B3_10" function="internal">
        <lane id=":B3_10_0" index="0" speed="11.67" length="16.32" shape="82.50,238.71 82.17,243.80 81.20,247.98 79.57,251.24 77.29,253.59"/>
    </edge>
    <edge id=":B3_11" function="internal">
        <lane id=":B3_11_0" index="0" speed="3.65" length="4.67" shape="82.50,238.71 81.70,239.91 80.90,240.31 80.10,239.91 79.30,238.71"/>
    </edge>
    <edge id=":B3_12" function="internal">
        <lane id=":B3_12_0" index="0" speed="10.58" length="13.31" shape="75.40,251.01 77.11,249.18 78.33,246.52 79.06,243.03 79.30,238.71"/>
    </edge>
    <edge id=":B3_13" function="internal">
        <lane id=":B3_13_0" index="0" speed="13.89" length="15.91" shape="75.40,251.01 88.28,241.65"/>
    </edge>
    <edge id=":B3_14" function="internal">
        <lane id=":B3_14_0" index="0" speed="11.67" length="3.52" shape="75.40,251.01 78.35,249.56 78.59,249.53"/>
    </edge>
    <edge id=":B3_15" function="internal">
        <lane id=":B3_15_0" index="0" speed="3.65" length="1.44" shape="75.40,251.01 76.85,250.95"/>
    </edge>
    <edge id=":B3_18" function="internal">
        <lane id=":B3_18_0" index="0" speed="11.67" length="12.80" shape="78.59,249.53 81.95,249.02 86.23,249.38 91.17,250.65"/>
    </edge>
    <edge id=":B3_19" function="internal">
        <lane id=":B3_19_0" index="0" speed="3.65" length="3.23" shape="76.85,250.95 77.64,251.36 77.79,252.24 77.29,253.59"/>
    </edge>
    <edge id=":B4_0" function="internal">
        <lane id=":B4_0_0" index="0" speed="10.58" length="13.31" shape="79.30,141.71 79.06,137.39 78.33,133.90 77.11,131.24 75.40,129.41"/>
    </edge>
    <edge id=":B4_1" function="internal">
        <lane id=":B4_1_0" index="0" speed="10.71" length="19.95" shape="79.30,141.71 79.98,136.48 82.02,132.24 85.42,128.99 90.18,126.73"/>
    </edge>
    <edge id=":B4_2" function="internal">
        <lane id=":B4_2_0" index="0" speed="7.38" length="17.63" shape="79.30,141.71 79.98,136.33 82.01,133.62 85.41,133.57 90.16,136.18"/>
    </edge>
    <edge id=":B4_3" function="internal">
        <lane id=":B4_3_0" index="0" speed="3.65" length="4.67" shape="79.30,141.71 80.10,140.51 80.90,140.11 81.70,140.51 82.50,141.71"/>
    </edge>
    <edge id=":B4_4" function="internal">
        <lane id=":B4_4_0" index="0" speed="5.57" length="9.38" shape="88.28,138.77 85.75,137.38 83.94,137.40 82.86,138.85 82.50,141.71"/>
    </edge>
    <edge id=":B4_5" function="internal">
        <lane id=":B4_5_0" index="0" speed="13.89" length="15.91" shape="88.28,138.77 75.40,129.41"/>
    </edge>
    <edge id=":B4_6" function="internal">
        <lane id=":B4_6_0" index="0" speed="7.38" length="5.28" shape="88.28,138.77 84.43,135.15"/>
    </edge>
    <edge id=":B4_7" function="internal">
        <lane id=":B4_7_0" index="0" speed="3.65" length="1.44" shape="88.28,138.77 87.78,137.41"/>
    </edge>
    <edge id=":B4_16" function="internal">
        <lane id=":B4_16_0" index="0" speed="7.38" length="12.35" shape="84.43,135.15 84.32,135.06 83.32,131.81 85.28,129.04 90.18,126.73"/>
    </edge>
    <edge id=":B4_17" function="internal">
        <lane id=":B4_17_0" index="0" speed="3.65" length="3.23" shape="87.78,137.41 87.92,136.53 88.72,136.12 90.16,136.18"/>
    </edge>
    <edge id=":B4_8" function="internal">
        <lane id=":B4_8_0" index="0" speed="5.57" length="9.38" shape="91.17,129.78 88.56,131.00 87.52,132.48 88.05,134.20 90.16,136.18"/>
    </edge>
    <edge id=":B4_9" function="internal">
        <lane id=":B4_9_0" index="0" speed="9.61" length="15.90" shape="91.17,129.78 87.38,131.58 84.67,134.17 83.04,137.55 82.50,141.71"/>
    </edge>
    <edge id=":B4_10" function="internal">
        <lane id=":B4_10_0" index="0" speed="11.67" length="16.32" shape="91.17,129.78 86.23,131.04 81.95,131.40 78.35,130.86 75.40,129.41"/>
    </edge>
    <edge id=":B4_11" function="internal">
        <lane id=":B4_11_0" index="0" speed="3.65" length="4.67" shape="91.17,129.78 89.78,129.39 89.16,128.75 89.29,127.86 90.18,126.73"/>
    </edge>
    <edge id=":B4_12" function="internal">
        <lane id=":B4_12_0" index="0" speed="10.58" length="13.31" shape="77.29,126.83 79.55,127.88 82.46,128.22 86.00,127.83 90.18,126.73"/>
    </edge>
    <edge id=":B4_13" function="internal">
        <lane id=":B4_13_0" index="0" speed="13.89" length="15.91" shape="77.29,126.83 90.16,136.18"/>
    </edge>
    <edge id=":B4_14" function="internal">
        <lane id=":B4_14_0" index="0" speed="11.67" length="3.52" shape="77.29,126.83 79.57,129.18 79.68,129.39"/>
    </edge>
    <edge id=":B4_15" function="internal">
        <lane id=":B4_15_0" index="0" speed="3.65" length="1.44" shape="77.29,126.83 77.79,128.18"/>
    </edge>
    <edge id=":B4_18" function="internal">
        <lane id=":B4_18_0" index="0" speed="11.67" length="12.80" shape="79.68,129.39 81.20,132.44 82.17,136.62 82.50,141.71"/>
    </edge>
    <edge id=":B4_19" function="internal">
        <lane id=":B4_19_0" index="0" speed="3.65" length="3.23" shape="77.79,128.18 77.64,129.06 76.85,129.47 75.40,129.41"/>
    </edge>
    <edge id=":B5_0" function="internal">
        <lane id=":B5_0_0" index="0" speed="5.57" length="9.38" shape="197.46,104.37 195.48,102.26 193.76,101.73 192.28,102.77 191.05,105.38"/>
    </edge>
    <edge id=":B5_1" function="internal">
        <lane id=":B5_1_0" index="0" speed="9.61" length="15.90" shape="197.46,104.37 194.57,101.32 191.27,99.54 187.56,99.04 183.43,99.81"/>
    </edge>
    <edge id=":B5_2" function="internal">
        <lane id=":B5_2_0" index="0" speed="11.67" length="16.32" shape="197.46,104.37 194.73,100.06 193.06,96.10 192.46,92.50 192.93,89.26"/>
    </edge>
    <edge id=":B5_3" function="internal">
        <lane id=":B5_3_0" index="0" speed="3.65" length="4.67" shape="197.46,104.37 197.40,102.93 197.81,102.13 198.69,101.99 200.05,102.49"/>
    </edge>
    <edge id=":B5_4" function="internal">
        <lane id=":B5_4_0" index="0" speed="10.58" length="13.31" shape="195.97,90.25 195.67,92.73 196.25,95.60 197.71,98.85 200.05,102.49"/>
    </edge>
    <edge id=":B5_5" function="internal">
        <lane id=":B5_5_0" index="0" speed="13.89" length="15.91" shape="195.97,90.25 191.05,105.38"/>
    </edge>
    <edge id=":B5_6" function="internal">
        <lane id=":B5_6_0" index="0" speed="11.67" length="3.52" shape="195.97,90.25 194.44,93.15 194.27,93.32"/>
    </edge>
    <edge id=":B5_7" function="internal">
        <lane id=":B5_7_0" index="0" speed="3.65" length="1.44" shape="195.97,90.25 194.84,91.14"/>
    </edge>
    <edge id=":B5_16" function="internal">
        <lane id=":B5_16_0" index="0" speed="11.67" length="12.80" shape="194.27,93.32 191.84,95.70 188.17,97.92 183.43,99.81"/>
    </edge>
    <edge id=":B5_17" function="internal">
        <lane id=":B5_17_0" index="0" speed="3.65" length="3.23" shape="194.84,91.14 193.96,91.28 193.32,90.65 192.93,89.26"/>
    </edge>
    <edge id=":B5_8" function="internal">
        <lane id=":B5_8_0" index="0" speed="10.58" length="13.31" shape="182.44,96.76 186.47,95.20 189.56,93.43 191.71,91.45 192.93,89.26"/>
    </edge>
    <edge id=":B5_9" function="internal">
        <lane id=":B5_9_0" index="0" speed="10.71" length="19.95" shape="182.44,96.76 187.62,95.80 192.28,96.43 196.42,98.66 200.05,102.49"/>
    </edge>
    <edge id=":B5_10" function="internal">
        <lane id=":B5_10_0" index="0" speed="7.38" length="17.63" shape="182.44,96.76 187.76,95.75 190.97,96.85 192.07,100.06 191.05,105.38"/>
    </edge>
    <edge id=":B5_11" function="internal">
        <lane id=":B5_11_0" index="0" speed="3.65" length="4.67" shape="182.44,96.76 183.83,97.15 184.45,97.79 184.32,98.68 183.43,99.81"/>
    </edge>
    <edge id=":B5_12" function="internal">
        <lane id=":B5_12_0" index="0" speed="5.57" length="9.38" shape="188.01,104.39 188.55,101.56 187.97,99.85 186.26,99.27 183.43,99.81"/>
    </edge>
    <edge id=":B5_13" function="internal">
        <lane id=":B5_13_0" index="0" speed="13.89" length="15.91" shape="188.01,104.39 192.93,89.26"/>
    </edge>
    <edge id=":B5_14" function="internal">
        <lane id=":B5_14_0" index="0" speed="7.38" length="5.28" shape="188.01,104.39 190.26,99.62"/>
    </edge>
    <edge id=":B5_15" function="internal">
        <lane id=":B5_15_0" index="0" speed="3.65" length="1.44" shape="188.01,104.39 189.14,103.50"/>
    </edge>
    <edge id=":B5_18" function="internal">
        <lane id=":B5_18_0" index="0" speed="7.38" length="12.35" shape="190.26,99.62 190.32,99.49 193.09,97.53 196.34,98.53 200.05,102.49"/>
    </edge>
    <edge id=":B5_19" function="internal">
        <lane id=":B5_19_0" index="0" speed="3.65" length="3.23" shape="189.14,103.50 190.03,103.37 190.66,103.99 191.05,105.38"/>
    </edge>
    <edge id=":C1_0" function="internal">
        <lane id=":C1_0_0" index="0" speed="10.71" length="19.95" shape="357.05,180.95 359.57,185.58 360.41,190.21 359.57,194.84 357.05,199.47"/>
    </edge>
    <edge id=":C1_1" function="internal">
        <lane id=":C1_1_0" index="0" speed="7.38" length="8.16" shape="357.05,180.95 359.66,185.70 359.62,188.44"/>
    </edge>
    <edge id=":C1_2" function="internal">
        <lane id=":C1_2_0" index="0" speed="3.65" length="1.44" shape="357.05,180.95 357.11,182.39"/>
    </edge>
    <edge id=":C1_9" function="internal">
        <lane id=":C1_9_0" index="0" speed="7.38" length="9.47" shape="359.62,188.44 359.61,189.10 356.90,191.13 351.52,191.81"/>
    </edge>
    <edge id=":C1_10" function="internal">
        <lane id=":C1_10_0" index="0" speed="3.65" length="3.23" shape="357.11,182.39 356.70,183.19 355.82,183.33 354.46,182.83"/>
    </edge>
    <edge id=":C1_3" function="internal">
        <lane id=":C1_3_0" index="0" speed="5.57" length="9.38" shape="351.52,188.61 354.38,188.25 355.83,187.17 355.85,185.36 354.46,182.83"/>
    </edge>
    <edge id=":C1_4" function="internal">
        <lane id=":C1_4_0" index="0" speed="7.38" length="17.63" shape="351.52,188.61 356.90,189.29 359.61,191.32 359.66,194.72 357.05,199.47"/>
    </edge>
    <edge id=":C1_5" function="internal">
        <lane id=":C1_5_0" index="0" speed="3.65" length="4.67" shape="351.52,188.61 352.72,189.41 353.12,190.21 352.72,191.01 351.52,191.81"/>
    </edge>
    <edge id=":C1_6" function="internal">
        <lane id=":C1_6_0" index="0" speed="5.57" length="9.38" shape="354.46,197.59 355.85,195.06 355.83,193.25 354.38,192.17 351.52,191.81"/>
    </edge>
    <edge id=":C1_7" function="internal">
        <lane id=":C1_7_0" index="0" speed="9.61" length="15.90" shape="354.46,197.59 356.47,193.90 357.14,190.21 356.47,186.52 354.46,182.83"/>
    </edge>
    <edge id=":C1_8" function="internal">
        <lane id=":C1_8_0" index="0" speed="3.65" length="1.31" shape="354.46,197.59 355.69,197.13"/>
    </edge>
    <edge id=":C1_11" function="internal">
        <lane id=":C1_11_0" index="0" speed="3.65" length="3.36" shape="355.69,197.13 355.82,197.09 356.70,197.23 357.11,198.03 357.05,199.47"/>
    </edge>
    <edge id=":C2_0" function="internal">
        <lane id=":C2_0_0" index="0" speed="10.71" length="19.95" shape="230.95,373.04 227.32,376.87 223.18,379.10 218.52,379.73 213.34,378.77"/>
    </edge>
    <edge id=":C2_1" function="internal">
        <lane id=":C2_1_0" index="0" speed="7.38" length="8.16" shape="230.95,373.04 227.24,377.00 224.62,377.80"/>
    </edge>
    <edge id=":C2_2" function="internal">
        <lane id=":C2_2_0" index="0" speed="3.65" length="1.44" shape="230.95,373.04 229.59,373.54"/>
    </edge>
    <edge id=":C2_9" function="internal">
        <lane id=":C2_9_0" index="0" speed="7.38" length="9.47" shape="224.62,377.80 223.99,378.00 221.22,376.04 218.91,371.14"/>
    </edge>
    <edge id=":C2_10" function="internal">
        <lane id=":C2_10_0" index="0" speed="3.65" length="3.23" shape="229.59,373.54 228.71,373.40 228.30,372.60 228.36,371.16"/>
    </edge>
    <edge id=":C2_3" function="internal">
        <lane id=":C2_3_0" index="0" speed="5.57" length="9.38" shape="221.95,370.15 223.18,372.76 224.66,373.80 226.38,373.27 228.36,371.16"/>
    </edge>
    <edge id=":C2_4" function="internal">
        <lane id=":C2_4_0" index="0" speed="7.38" length="17.63" shape="221.95,370.15 222.97,375.47 221.87,378.68 218.66,379.78 213.34,378.77"/>
    </edge>
    <edge id=":C2_5" function="internal">
        <lane id=":C2_5_0" index="0" speed="3.65" length="4.67" shape="221.95,370.15 221.56,371.54 220.93,372.16 220.04,372.03 218.91,371.14"/>
    </edge>
    <edge id=":C2_6" function="internal">
        <lane id=":C2_6_0" index="0" speed="5.57" length="9.38" shape="214.33,375.72 217.16,376.26 218.87,375.68 219.45,373.97 218.91,371.14"/>
    </edge>
    <edge id=":C2_7" function="internal">
        <lane id=":C2_7_0" index="0" speed="9.61" length="15.90" shape="214.33,375.72 218.46,376.49 222.17,375.99 225.47,374.21 228.36,371.16"/>
    </edge>
    <edge id=":C2_8" function="internal">
        <lane id=":C2_8_0" index="0" speed="3.65" length="1.31" shape="214.33,375.72 215.14,376.75"/>
    </edge>
    <edge id=":C2_11" function="internal">
        <lane id=":C2_11_0" index="0" speed="3.65" length="3.36" shape="215.14,376.75 215.22,376.85 215.35,377.74 214.73,378.38 213.34,378.77"/>
    </edge>
    <edge id=":C3_0" function="internal">
        <lane id=":C3_0_0" index="0" speed="10.71" length="19.95" shape="9.28,312.47 4.52,310.21 1.12,306.96 -0.92,302.72 -1.60,297.49"/>
    </edge>
    <edge id=":C3_1" function="internal">
        <lane id=":C3_1_0" index="0" speed="7.38" length="8.16" shape="9.28,312.47 4.38,310.16 2.80,307.92"/>
    </edge>
    <edge id=":C3_2" function="internal">
        <lane id=":C3_2_0" index="0" speed="3.65" length="1.44" shape="9.28,312.47 8.39,311.34"/>
    </edge>
    <edge id=":C3_9" function="internal">
        <lane id=":C3_9_0" index="0" speed="7.38" length="9.47" shape="2.80,307.92 2.42,307.39 3.42,304.14 7.38,300.43"/>
    </edge>
    <edge id=":C3_10" function="internal">
        <lane id=":C3_10_0" index="0" speed="3.65" length="3.23" shape="8.39,311.34 8.26,310.45 8.88,309.81 10.27,309.42"/>
    </edge>
    <edge id=":C3_3" function="internal">
        <lane id=":C3_3_0" index="0" speed="5.57" length="9.38" shape="9.26,303.02 7.15,305.00 6.62,306.72 7.66,308.20 10.27,309.42"/>
    </edge>
    <edge id=":C3_4" function="internal">