<?xml version="1.0" encoding="UTF-8"?>

<!-- generated on 2026-04-16T17:52:37.749127-08:00 by Eclipse SUMO netgenerate 1.26.0
<netgenerateConfiguration xmlns:xsi="http://www.w3.org/2001/XMLSchema-instance" xsi:noNamespaceSchemaLocation="http://sumo.dlr.de/xsd/netgenerateConfiguration.xsd">

    <random_network>
        <rand value="true"/>
        <rand.iterations value="75"/>
        <rand.min-distance value="50"/>
    </random_network>

    <output>
        <output-file value="D:\research project\NeurIPS\logic building\Meta-MOHRL- Antigravity code building\sumo_configs\15_topologies\topo_10_heterogeneous_mesh_C.net.xml"/>
    </output>

</netgenerateConfiguration>
-->

<net version="1.20" junctionCornerDetail="5" limitTurnSpeed="5.50" xmlns:xsi="http://www.w3.org/2001/XMLSchema-instance" xsi:noNamespaceSchemaLocation="http://sumo.dlr.de/xsd/net_file.xsd">

    <location netOffset="390.46,1379.21" convBoundary="0.00,0.00,1380.97,1814.37" origBoundary="-390.46,-1379.21,990.51,435.17" projParameter="!"/>

    <edge id=":1_0" function="internal">
        <lane id=":1_0_0" index="0" speed="5.98" length="9.08" shape="388.99,1387.51 388.58,1384.94 387.45,1383.36 385.60,1382.78 383.03,1383.19"/>
    </edge>
    <edge id=":1_1" function="internal">
        <lane id=":1_1_0" index="0" speed="13.89" length="14.86" shape="388.99,1387.51 388.85,1383.78 388.54,1380.09 388.02,1376.43 387.27,1372.78"/>
    </edge>
    <edge id=":1_2" function="internal">
        <lane id=":1_2_0" index="0" speed="8.09" length="4.36" shape="388.99,1387.51 389.49,1383.17"/>
    </edge>
    <edge id=":1_3" function="internal">
        <lane id=":1_3_0" index="0" speed="3.65" length="1.44" shape="388.99,1387.51 389.77,1386.29"/>
    </edge>
    <edge id=":1_16" function="internal">
        <lane id=":1_16_0" index="0" speed="8.09" length="10.76" shape="389.49,1383.17 391.14,1380.12 393.94,1378.36 397.89,1377.89"/>
    </edge>
    <edge id=":1_17" function="internal">
        <lane id=":1_17_0" index="0" speed="3.65" length="3.23" shape="389.77,1386.29 390.56,1385.88 391.37,1386.27 392.19,1387.46"/>
    </edge>
    <edge id=":1_4" function="internal">
        <lane id=":1_4_0" index="0" speed="6.62" length="9.76" shape="397.77,1381.09 395.29,1381.41 393.53,1382.57 392.50,1384.59 392.19,1387.46"/>
    </edge>
    <edge id=":1_5" function="internal">
        <lane id=":1_5_0" index="0" speed="13.89" length="14.95" shape="397.77,1381.09 394.03,1381.13 390.32,1381.51 386.65,1382.21 383.03,1383.19"/>
    </edge>
    <edge id=":1_6" function="internal">
        <lane id=":1_6_0" index="0" speed="9.03" length="14.51" shape="397.77,1381.09 393.90,1380.45 390.85,1378.85 388.65,1376.29 387.27,1372.78"/>
    </edge>
    <edge id=":1_7" function="internal">
        <lane id=":1_7_0" index="0" speed="3.65" length="4.67" shape="397.77,1381.09 396.60,1380.24 396.23,1379.43 396.66,1378.64 397.89,1377.89"/>
    </edge>
    <edge id=":1_8" function="internal">
        <lane id=":1_8_0" index="0" speed="7.70" length="10.32" shape="390.38,1372.03 391.36,1374.51 392.93,1376.31 395.11,1377.44 397.89,1377.89"/>
    </edge>
    <edge id=":1_9" function="internal">
        <lane id=":1_9_0" index="0" speed="13.89" length="15.56" shape="390.38,1372.03 391.15,1375.79 391.69,1379.69 392.04,1383.62 392.19,1387.46"/>
    </edge>
    <edge id=":1_10" function="internal">
        <lane id=":1_10_0" index="0" speed="8.41" length="4.08" shape="390.38,1372.03 390.67,1375.83 390.57,1376.09"/>
    </edge>
    <edge id=":1_11" function="internal">
        <lane id=":1_11_0" index="0" speed="3.65" length="1.44" shape="390.38,1372.03 389.88,1373.39"/>
    </edge>
    <edge id=":1_18" function="internal">
        <lane id=":1_18_0" index="0" speed="8.41" length="10.92" shape="390.57,1376.09 389.54,1378.95 386.99,1381.41 383.03,1383.19"/>
    </edge>
    <edge id=":1_19" function="internal">
        <lane id=":1_19_0" index="0" speed="3.65" length="3.23" shape="389.88,1373.39 389.20,1373.96 388.33,1373.76 387.27,1372.78"/>
    </edge>
    <edge id=":1_12" function="internal">
        <lane id=":1_12_0" index="0" speed="7.00" length="10.09" shape="382.08,1380.13 384.83,1378.92 386.62,1377.29 387.43,1375.24 387.27,1372.78"/>
    </edge>
    <edge id=":1_13" function="internal">
        <lane id=":1_13_0" index="0" speed="13.89" length="16.03" shape="382.08,1380.13 385.87,1379.13 389.91,1378.39 393.99,1377.95 397.89,1377.89"/>
    </edge>
    <edge id=":1_14" function="internal">
        <lane id=":1_14_0" index="0" speed="7.59" length="15.41" shape="382.08,1380.13 386.44,1379.43 389.58,1380.42 391.50,1383.10 392.19,1387.46"/>
    </edge>
    <edge id=":1_15" function="internal">
        <lane id=":1_15_0" index="0" speed="3.65" length="4.67" shape="382.08,1380.13 383.47,1380.54 384.09,1381.19 383.94,1382.07 383.03,1383.19"/>
    </edge>
    <edge id=":10_0" function="internal">
        <lane id=":10_0_0" index="0" speed="8.69" length="13.76" shape="253.17,1428.61 252.14,1426.17 249.93,1424.30 246.56,1423.01 242.01,1422.30"/>
    </edge>
    <edge id=":10_1" function="internal">
        <lane id=":10_1_0" index="0" speed="13.89" length="17.07" shape="253.17,1428.61 252.01,1424.75 250.02,1420.77 247.58,1417.00 245.09,1413.74"/>
    </edge>
    <edge id=":10_2" function="internal">
        <lane id=":10_2_0" index="0" speed="8.29" length="13.67" shape="253.17,1428.61 253.08,1424.93 254.14,1421.96 256.33,1419.69 259.66,1418.12"/>
    </edge>
    <edge id=":10_3" function="internal">
        <lane id=":10_3_0" index="0" speed="3.65" length="4.67" shape="253.17,1428.61 253.77,1427.30 254.49,1426.77 255.34,1427.04 256.33,1428.10"/>
    </edge>
    <edge id=":10_4" function="internal">
        <lane id=":10_4_0" index="0" speed="6.84" length="9.02" shape="260.61,1421.18 258.41,1422.21 256.97,1423.71 256.27,1425.67 256.33,1428.10"/>
    </edge>
    <edge id=":10_5" function="internal">
        <lane id=":10_5_0" index="0" speed="13.89" length="18.71" shape="260.61,1421.18 256.39,1422.04 251.39,1422.45 246.34,1422.51 242.01,1422.30"/>
    </edge>
    <edge id=":10_6" function="internal">
        <lane id=":10_6_0" index="0" speed="10.64" length="4.35" shape="260.61,1421.18 256.83,1421.59 256.30,1421.44"/>
    </edge>
    <edge id=":10_7" function="internal">
        <lane id=":10_7_0" index="0" speed="3.65" length="1.44" shape="260.61,1421.18 259.23,1420.77"/>
    </edge>
    <edge id=":10_16" function="internal">
        <lane id=":10_16_0" index="0" speed="10.64" length="13.89" shape="256.30,1421.44 252.98,1420.48 249.07,1417.87 245.09,1413.74"/>
    </edge>
    <edge id=":10_17" function="internal">
        <lane id=":10_17_0" index="0" speed="3.65" length="3.23" shape="259.23,1420.77 258.61,1420.12 258.75,1419.24 259.66,1418.12"/>
    </edge>
    <edge id=":10_8" function="internal">
        <lane id=":10_8_0" index="0" speed="9.52" length="14.46" shape="247.57,1411.71 250.81,1415.15 253.91,1417.36 256.86,1418.36 259.66,1418.12"/>
    </edge>
    <edge id=":10_9" function="internal">
        <lane id=":10_9_0" index="0" speed="13.89" length="18.72" shape="247.57,1411.71 250.16,1415.21 252.83,1419.50 255.07,1424.00 256.33,1428.10"/>
    </edge>
    <edge id=":10_10" function="internal">
        <lane id=":10_10_0" index="0" speed="7.41" length="19.11" shape="247.57,1411.71 250.87,1416.82 251.04,1420.28 248.09,1422.11 242.01,1422.30"/>
    </edge>
    <edge id=":10_11" function="internal">
        <lane id=":10_11_0" index="0" speed="3.65" length="4.67" shape="247.57,1411.71 247.71,1413.14 247.34,1413.96 246.47,1414.16 245.09,1413.74"/>
    </edge>
    <edge id=":10_12" function="internal">
        <lane id=":10_12_0" index="0" speed="5.48" length="9.69" shape="242.27,1419.11 245.36,1419.01 246.85,1418.09 246.77,1416.33 245.09,1413.74"/>
    </edge>
    <edge id=":10_13" function="internal">
        <lane id=":10_13_0" index="0" speed="13.89" length="17.50" shape="242.27,1419.11 246.42,1419.34 251.05,1419.33 255.63,1418.96 259.66,1418.12"/>
    </edge>
    <edge id=":10_14" function="internal">
        <lane id=":10_14_0" index="0" speed="9.87" length="5.38" shape="242.27,1419.11 247.57,1420.01"/>
    </edge>
    <edge id=":10_15" function="internal">
        <lane id=":10_15_0" index="0" speed="3.65" length="1.44" shape="242.27,1419.11 243.40,1420.00"/>
    </edge>
    <edge id=":10_18" function="internal">
        <lane id=":10_18_0" index="0" speed="9.87" length="12.63" shape="247.57,1420.01 247.94,1420.07 252.17,1421.89 254.97,1424.56 256.33,1428.10"/>
    </edge>
    <edge id=":10_19" function="internal">
        <lane id=":10_19_0" index="0" speed="3.65" length="3.23" shape="243.40,1420.00 243.73,1420.83 243.27,1421.60 242.01,1422.30"/>
    </edge>
    <edge id=":1006_0" function="internal">
        <lane id=":1006_0_0" index="0" speed="6.36" length="13.15" shape="463.35,960.39 463.33,956.28 464.55,954.14 467.00,953.96 470.70,955.75"/>
    </edge>
    <edge id=":1006_1" function="internal">
        <lane id=":1006_1_0" index="0" speed="4.05" length="4.38" shape="468.97,958.45 467.74,957.85 466.92,957.91 466.52,958.62 466.52,959.99"/>
    </edge>
    <edge id=":1023_0" function="internal">
        <lane id=":1023_0_0" index="0" speed="6.44" length="13.86" shape="709.32,201.57 713.71,201.69 715.88,203.01 715.82,205.55 713.54,209.30"/>
    </edge>
    <edge id=":1023_1" function="internal">
        <lane id=":1023_1_0" index="0" speed="4.09" length="4.62" shape="711.01,207.34 711.77,206.09 711.79,205.24 711.07,204.80 709.61,204.76"/>
    </edge>
    <edge id=":1025_0" function="internal">
        <lane id=":1025_0_0" index="0" speed="6.61" length="7.06" shape="586.98,292.17 585.17,291.73 583.51,291.86 582.00,292.56 580.64,293.84"/>
    </edge>
    <edge id=":1025_1" function="internal">
        <lane id=":1025_1_0" index="0" speed="10.15" length="10.67" shape="586.98,292.17 584.45,290.92 582.37,289.29 580.76,287.30 579.61,284.92"/>
    </edge>
    <edge id=":1025_2" function="internal">
        <lane id=":1025_2_0" index="0" speed="3.65" length="1.44" shape="586.98,292.17 586.15,290.99"/>
    </edge>
    <edge id=":1025_9" function="internal">
        <lane id=":1025_9_0" index="0" speed="3.65" length="3.23" shape="586.15,290.99 586.07,290.10 586.73,289.50 588.13,289.18"/>
    </edge>
    <edge id=":1025_3" function="internal">
        <lane id=":1025_3_0" index="0" speed="8.81" length="7.92" shape="582.62,283.84 583.47,285.58 584.67,287.05 586.23,288.25 588.13,289.18"/>
    </edge>
    <edge id=":1025_4" function="internal">
        <lane id=":1025_4_0" index="0" speed="8.97" length="2.67" shape="582.62,283.84 583.21,286.45"/>
    </edge>
    <edge id=":1025_5" function="internal">
        <lane id=":1025_5_0" index="0" speed="3.65" length="1.33" shape="582.62,283.84 582.30,285.13"/>
    </edge>
    <edge id=":1025_10" function="internal">
        <lane id=":1025_10_0" index="0" speed="8.97" length="8.01" shape="583.21,286.45 583.08,288.98 582.22,291.45 580.64,293.84"/>
    </edge>
    <edge id=":1025_11" function="internal">
        <lane id=":1025_11_0" index="0" speed="3.65" length="3.34" shape="582.30,285.13 582.27,285.24 581.66,285.89 580.77,285.78 579.61,284.92"/>
    </edge>
    <edge id=":1025_6" function="internal">
        <lane id=":1025_6_0" index="0" speed="7.54" length="7.37" shape="578.17,291.81 579.28,290.13 579.89,288.43 580.00,286.69 579.61,284.92"/>
    </edge>
    <edge id=":1025_7" function="internal">
        <lane id=":1025_7_0" index="0" speed="8.13" length="11.09" shape="578.17,291.81 580.31,289.80 582.68,288.70 585.29,288.49 588.13,289.18"/>
    </edge>
    <edge id=":1025_8" function="internal">
        <lane id=":1025_8_0" index="0" speed="3.65" length="4.67" shape="578.17,291.81 579.55,291.39 580.43,291.59 580.79,292.40 580.64,293.84"/>
    </edge>
    <edge id=":1055_0" function="internal">
        <lane id=":1055_0_0" index="0" speed="3.65" length="4.67" shape="661.17,-0.70 662.42,-1.43 663.31,-1.44 663.86,-0.73 664.05,0.70"/>
    </edge>
    <edge id=":1078_0" function="internal">
        <lane id=":1078_0_0" index="0" speed="3.65" length="4.67" shape="218.45,1381.26 218.31,1379.83 218.68,1379.01 219.55,1378.81 220.93,1379.24"/>
    </edge>
    <edge id=":1080_0" function="internal">
        <lane id=":1080_0_0" index="0" speed="5.74" length="9.18" shape="269.47,1486.72 267.10,1485.40 265.23,1485.38 263.86,1486.65 262.99,1489.23"/>
    </edge>
    <edge id=":1080_1" function="internal">
        <lane id=":1080_1_0" index="0" speed="12.95" length="14.98" shape="269.47,1486.72 266.53,1484.32 263.89,1481.58 261.85,1478.49 260.70,1475.00"/>
    </edge>
    <edge id=":1080_2" function="internal">
        <lane id=":1080_2_0" index="0" speed="3.65" length="4.67" shape="269.47,1486.72 268.99,1485.36 269.15,1484.48 269.95,1484.08 271.39,1484.16"/>
    </edge>
    <edge id=":1080_3" function="internal">
        <lane id=":1080_3_0" index="0" speed="11.93" length="12.65" shape="263.86,1474.48 264.81,1477.65 266.43,1480.05 268.64,1482.08 271.39,1484.16"/>
    </edge>
    <edge id=":1080_4" function="internal">
        <lane id=":1080_4_0" index="0" speed="13.89" length="14.85" shape="263.86,1474.48 264.20,1478.18 264.08,1481.86 263.64,1485.55 262.99,1489.23"/>
    </edge>
    <edge id=":1080_5" function="internal">
        <lane id=":1080_5_0" index="0" speed="3.65" length="1.44" shape="263.86,1474.48 263.26,1475.80"/>
    </edge>
    <edge id=":1080_9" function="internal">
        <lane id=":1080_9_0" index="0" speed="3.65" length="3.23" shape="263.26,1475.80 262.54,1476.32 261.68,1476.05 260.70,1475.00"/>
    </edge>
    <edge id=":1080_6" function="internal">
        <lane id=":1080_6_0" index="0" speed="13.89" length="13.74" shape="259.85,1488.63 260.49,1485.12 260.93,1481.82 261.04,1478.52 260.70,1475.00"/>
    </edge>
    <edge id=":1080_7" function="internal">
        <lane id=":1080_7_0" index="0" speed="7.44" length="4.48" shape="259.85,1488.63 261.28,1484.39"/>
    </edge>
    <edge id=":1080_8" function="internal">
        <lane id=":1080_8_0" index="0" speed="3.65" length="1.44" shape="259.85,1488.63 260.86,1487.60"/>
    </edge>
    <edge id=":1080_10" function="internal">
        <lane id=":1080_10_0" index="0" speed="7.44" length="11.87" shape="261.28,1484.39 261.39,1484.04 263.83,1481.77 267.16,1481.81 271.39,1484.16"/>
    </edge>
    <edge id=":1080_11" function="internal">
        <lane id=":1080_11_0" index="0" speed="3.65" length="3.23" shape="260.86,1487.60 261.72,1487.36 262.43,1487.90 262.99,1489.23"/>
    </edge>
    <edge id=":1115_0" function="internal">
        <lane id=":1115_0_0" index="0" speed="6.20" length="11.29" shape="585.38,1029.44 587.96,1031.63 588.76,1033.74 587.77,1035.78 585.01,1037.73"/>
    </edge>
    <edge id=":1115_1" function="internal">
        <lane id=":1115_1_0" index="0" speed="3.97" length="3.76" shape="583.53,1034.90 584.45,1034.24 584.77,1033.57 584.51,1032.86 583.65,1032.13"/>
    </edge>
    <edge id=":1143_0" function="internal">
        <lane id=":1143_0_0" index="0" speed="3.65" length="4.67" shape="6.82,1402.74 5.69,1401.85 5.36,1401.02 5.82,1400.25 7.08,1399.56"/>
    </edge>
    <edge id=":1148_0" function="internal">
        <lane id=":1148_0_0" index="0" speed="6.16" length="6.18" shape="636.87,307.74 635.71,308.89 634.40,309.53 632.95,309.65 631.36,309.27"/>
    </edge>
    <edge id=":1148_1" function="internal">
        <lane id=":1148_1_0" index="0" speed="3.95" length="2.06" shape="632.51,306.28 633.04,306.41 633.52,306.37 633.96,306.16 634.35,305.77"/>
    </edge>
    <edge id=":12_0" function="internal">
        <lane id=":12_0_0" index="0" speed="13.89" length="16.68" shape="438.43,1204.77 435.76,1201.75 432.61,1198.74 429.18,1196.12 425.67,1194.24"/>
    </edge>
    <edge id=":12_1" function="internal">
        <lane id=":12_1_0" index="0" speed="11.41" length="19.57" shape="438.43,1204.77 435.41,1200.19 433.85,1195.63 433.74,1191.09 435.09,1186.57"/>
    </edge>
    <edge id=":12_2" function="internal">
        <lane id=":12_2_0" index="0" speed="7.38" length="18.29" shape="438.43,1204.77 435.37,1199.94 435.22,1196.52 437.99,1194.50 443.67,1193.88"/>
    </edge>
    <edge id=":12_3" function="internal">
        <lane id=":12_3_0" index="0" speed="3.65" length="4.67" shape="438.43,1204.77 438.29,1203.33 438.66,1202.52 439.53,1202.32 440.91,1202.74"/>
    </edge>
    <edge id=":12_4" function="internal">
        <lane id=":12_4_0" index="0" speed="5.52" length="9.51" shape="443.64,1197.08 440.68,1197.40 439.24,1198.45 439.32,1200.23 440.91,1202.74"/>
    </edge>
    <edge id=":12_5" function="internal">
        <lane id=":12_5_0" index="0" speed="13.89" length="18.25" shape="443.64,1197.08 439.37,1196.87 434.52,1196.33 429.74,1195.45 425.67,1194.24"/>
    </edge>
    <edge id=":12_6" function="internal">
        <lane id=":12_6_0" index="0" speed="7.76" length="6.09" shape="443.64,1197.08 438.11,1196.36 437.67,1196.10"/>
    </edge>
    <edge id=":12_7" function="internal">
        <lane id=":12_7_0" index="0" speed="3.65" length="1.44" shape="443.64,1197.08 442.45,1196.27"/>
    </edge>
    <edge id=":12_16" function="internal">
        <lane id=":12_16_0" index="0" speed="7.76" length="11.44" shape="437.67,1196.10 434.84,1194.37 433.83,1191.11 435.09,1186.57"/>
    </edge>
    <edge id=":12_17" function="internal">
        <lane id=":12_17_0" index="0" speed="3.65" length="3.23" shape="442.45,1196.27 442.06,1195.46 442.47,1194.67 443.67,1193.88"/>
    </edge>
    <edge id=":12_8" function="internal">
        <lane id=":12_8_0" index="0" speed="6.17" length="10.57" shape="438.00,1187.91 437.34,1190.48 438.06,1192.34 440.17,1193.47 443.67,1193.88"/>
    </edge>
    <edge id=":12_9" function="internal">
        <lane id=":12_9_0" index="0" speed="10.35" length="15.98" shape="438.00,1187.91 436.93,1191.54 437.06,1195.22 438.39,1198.95 440.91,1202.74"/>
    </edge>
    <edge id=":12_10" function="internal">
        <lane id=":12_10_0" index="0" speed="8.52" length="15.58" shape="438.00,1187.91 435.58,1191.86 432.73,1194.23 429.42,1195.03 425.67,1194.24"/>
    </edge>
    <edge id=":12_11" function="internal">
        <lane id=":12_11_0" index="0" speed="3.65" length="4.67" shape="438.00,1187.91 436.77,1188.66 435.87,1188.69 435.32,1187.99 435.09,1186.57"/>
    </edge>
    <edge id=":12_12" function="internal">
        <lane id=":12_12_0" index="0" speed="7.14" length="10.63" shape="426.86,1191.26 429.29,1191.73 431.48,1191.11 433.41,1189.39 435.09,1186.57"/>
    </edge>
    <edge id=":12_13" function="internal">
        <lane id=":12_13_0" index="0" speed="13.89" length="17.09" shape="426.86,1191.26 430.74,1192.44 435.13,1193.24 439.59,1193.71 443.67,1193.88"/>
    </edge>
    <edge id=":12_14" function="internal">
        <lane id=":12_14_0" index="0" speed="13.89" length="3.40" shape="426.86,1191.26 429.84,1192.89"/>
    </edge>
    <edge id=":12_15" function="internal">
        <lane id=":12_15_0" index="0" speed="3.65" length="1.44" shape="426.86,1191.26 427.68,1192.45"/>
    </edge>
    <edge id=":12_18" function="internal">
        <lane id=":12_18_0" index="0" speed="13.89" length="14.88" shape="429.84,1192.89 430.57,1193.29 434.44,1196.24 438.03,1199.57 440.91,1202.74"/>
    </edge>
    <edge id=":12_19" function="internal">
        <lane id=":12_19_0" index="0" speed="3.65" length="3.23" shape="427.68,1192.45 427.75,1193.34 427.09,1193.94 425.67,1194.24"/>
    </edge>
    <edge id=":1232_0" function="internal">
        <lane id=":1232_0_0" index="0" speed="3.65" length="4.67" shape="543.44,339.07 542.06,339.48 541.18,339.29 540.82,338.47 540.96,337.03"/>
    </edge>
    <edge id=":1238_0" function="internal">
        <lane id=":1238_0_0" index="0" speed="3.65" length="4.67" shape="379.18,14.82 380.32,13.93 381.20,13.80 381.84,14.43 382.22,15.82"/>
    </edge>
    <edge id=":1264_0" function="internal">
        <lane id=":1264_0_0" index="0" speed="3.65" length="4.67" shape="238.16,1619.75 237.15,1620.78 236.29,1621.02 235.58,1620.48 235.02,1619.15"/>
    </edge>
    <edge id=":14_0" function="internal">
        <lane id=":14_0_0" index="0" speed="13.89" length="16.13" shape="291.60,1058.42 284.95,1043.73"/>
    </edge>
    <edge id=":14_1" function="internal">
        <lane id=":14_1_0" index="0" speed="12.26" length="3.46" shape="291.60,1058.42 290.81,1055.28 290.82,1055.06"/>
    </edge>
    <edge id=":14_2" function="internal">
        <lane id=":14_2_0" index="0" speed="3.65" length="1.44" shape="291.60,1058.42 291.85,1057.00"/>
    </edge>
    <edge id=":14_9" function="internal">
        <lane id=":14_9_0" index="0" speed="12.26" length="13.12" shape="290.82,1055.06 290.98,1051.58 292.12,1047.33 294.21,1042.53"/>
    </edge>
    <edge id=":14_10" function="internal">
        <lane id=":14_10_0" index="0" speed="3.65" length="3.23" shape="291.85,1057.00 292.42,1056.31 293.31,1056.36 294.53,1057.13"/>
    </edge>
    <edge id=":14_3" function="internal">
        <lane id=":14_3_0" index="0" speed="11.20" length="13.76" shape="297.07,1043.98 295.23,1048.10 294.20,1051.66 293.96,1054.67 294.53,1057.13"/>
    </edge>
    <edge id=":14_4" function="internal">
        <lane id=":14_4_0" index="0" speed="7.38" length="18.03" shape="297.07,1043.98 293.94,1048.62 290.88,1050.13 287.88,1048.50 284.95,1043.73"/>
    </edge>
    <edge id=":14_5" function="internal">
        <lane id=":14_5_0" index="0" speed="3.65" length="4.67" shape="297.07,1043.98 295.81,1044.68 294.92,1044.68 294.38,1043.96 294.21,1042.53"/>
    </edge>
    <edge id=":14_6" function="internal">
        <lane id=":14_6_0" index="0" speed="5.54" length="9.46" shape="287.86,1042.40 289.40,1044.90 290.97,1045.76 292.58,1044.97 294.21,1042.53"/>
    </edge>
    <edge id=":14_7" function="internal">
        <lane id=":14_7_0" index="0" speed="13.89" length="16.17" shape="287.86,1042.40 294.53,1057.13"/>
    </edge>
    <edge id=":14_8" function="internal">
        <lane id=":14_8_0" index="0" speed="3.65" length="1.44" shape="287.86,1042.40 287.63,1043.82"/>
    </edge>
    <edge id=":14_11" function="internal">
        <lane id=":14_11_0" index="0" speed="3.65" length="3.23" shape="287.63,1043.82 287.07,1044.52 286.17,1044.49 284.95,1043.73"/>
    </edge>
    <edge id=":141_0" function="internal">
        <lane id=":141_0_0" index="0" speed="3.65" length="4.67" shape="810.58,1455.84 809.83,1454.61 809.81,1453.71 810.51,1453.16 811.94,1452.94"/>
    </edge>
    <edge id=":172_0" function="internal">
        <lane id=":172_0_0" index="0" speed="6.15" length="10.61" shape="542.50,1640.40 539.50,1639.52 537.94,1638.00 537.84,1635.82 539.20,1633.00"/>
    </edge>
    <edge id=":172_1" function="internal">
        <lane id=":172_1_0" index="0" speed="3.94" length="3.54" shape="541.87,1634.77 541.42,1635.71 541.45,1636.43 541.97,1636.94 542.97,1637.23"/>
    </edge>
    <edge id=":18_0" function="internal">
        <lane id=":18_0_0" index="0" speed="10.44" length="16.37" shape="763.48,1320.04 759.45,1321.48 756.28,1323.78 753.98,1326.93 752.53,1330.95"/>
    </edge>
    <edge id=":18_1" function="internal">
        <lane id=":18_1_0" index="0" speed="13.89" length="19.96" shape="763.48,1320.04 759.10,1321.17 753.87,1322.73 748.68,1324.43 744.44,1325.99"/>
    </edge>
    <edge id=":18_2" function="internal">
        <lane id=":18_2_0" index="0" speed="7.38" length="4.51" shape="763.48,1320.04 758.99,1320.47"/>
    </edge>
    <edge id=":18_3" function="internal">
        <lane id=":18_3_0" index="0" speed="3.65" length="1.44" shape="763.48,1320.04 762.13,1319.52"/>
    </edge>
    <edge id=":18_16" function="internal">
        <lane id=":18_16_0" index="0" speed="7.38" length="12.96" shape="758.99,1320.47 758.15,1320.55 755.06,1319.17 754.20,1315.89 755.58,1310.72"/>
    </edge>
    <edge id=":18_17" function="internal">
        <lane id=":18_17_0" index="0" speed="3.65" length="3.23" shape="762.13,1319.52 761.56,1318.83 761.78,1317.96 762.77,1316.92"/>
    </edge>
    <edge id=":18_4" function="internal">
        <lane id=":18_4_0" index="0" speed="5.59" length="9.35" shape="758.55,1311.93 757.81,1314.70 758.27,1316.45 759.92,1317.19 762.77,1316.92"/>
    </edge>
    <edge id=":18_5" function="internal">
        <lane id=":18_5_0" index="0" speed="13.89" length="19.96" shape="758.55,1311.93 756.97,1316.17 755.25,1321.35 753.67,1326.57 752.53,1330.95"/>
    </edge>
    <edge id=":18_6" function="internal">
        <lane id=":18_6_0" index="0" speed="13.89" length="20.25" shape="758.55,1311.93 756.18,1315.96 752.60,1320.08 748.47,1323.65 744.44,1325.99"/>
    </edge>
    <edge id=":18_7" function="internal">
        <lane id=":18_7_0" index="0" speed="3.65" length="4.67" shape="758.55,1311.93 757.35,1312.74 756.46,1312.81 755.87,1312.14 755.58,1310.72"/>
    </edge>
    <edge id=":18_8" function="internal">
        <lane id=":18_8_0" index="0" speed="13.69" length="17.90" shape="743.24,1323.02 747.30,1320.93 750.71,1318.18 753.47,1314.78 755.58,1310.72"/>
    </edge>
    <edge id=":18_9" function="internal">
        <lane id=":18_9_0" index="0" speed="13.89" length="20.47" shape="743.24,1323.02 747.56,1321.43 752.92,1319.68 758.31,1318.07 762.77,1316.92"/>
    </edge>
    <edge id=":18_10" function="internal">
        <lane id=":18_10_0" index="0" speed="7.38" length="5.51" shape="743.24,1323.02 748.41,1321.67 748.57,1321.71"/>
    </edge>
    <edge id=":18_11" function="internal">
        <lane id=":18_11_0" index="0" speed="3.65" length="1.44" shape="743.24,1323.02 744.65,1323.31"/>
    </edge>
    <edge id=":18_18" function="internal">
        <lane id=":18_18_0" index="0" speed="7.38" length="11.94" shape="748.57,1321.71 751.68,1322.54 753.05,1325.63 752.53,1330.95"/>
    </edge>
    <edge id=":18_19" function="internal">
        <lane id=":18_19_0" index="0" speed="3.65" length="3.23" shape="744.65,1323.31 745.32,1323.91 745.25,1324.80 744.44,1325.99"/>
    </edge>
    <edge id=":18_12" function="internal">
        <lane id=":18_12_0" index="0" speed="5.59" length="9.35" shape="749.41,1330.23 749.69,1327.39 748.95,1325.73 747.20,1325.26 744.44,1325.99"/>
    </edge>
    <edge id=":18_13" function="internal">
        <lane id=":18_13_0" index="0" speed="13.89" length="20.48" shape="749.41,1330.23 750.58,1325.78 752.21,1320.39 753.98,1315.04 755.58,1310.72"/>
    </edge>
    <edge id=":18_14" function="internal">
        <lane id=":18_14_0" index="0" speed="11.37" length="19.55" shape="749.41,1330.23 751.26,1326.04 754.52,1322.00 758.56,1318.76 762.77,1316.92"/>
    </edge>
    <edge id=":18_15" function="internal">
        <lane id=":18_15_0" index="0" speed="3.65" length="4.67" shape="749.41,1330.23 750.46,1329.24 751.33,1329.03 752.02,1329.60 752.53,1330.95"/>
    </edge>
    <edge id=":180_0" function="internal">
        <lane id=":180_0_0" index="0" speed="6.32" length="9.49" shape="751.19,962.93 748.55,962.05 746.43,962.23 744.81,963.46 743.71,965.75"/>
    </edge>
    <edge id=":180_1" function="internal">
        <lane id=":180_1_0" index="0" speed="13.89" length="15.41" shape="751.19,962.93 747.70,961.39 744.03,960.10 740.27,959.09 736.52,958.41"/>
    </edge>
    <edge id=":180_2" function="internal">
        <lane id=":180_2_0" index="0" speed="7.58" length="3.88" shape="751.19,962.93 747.98,960.76"/>
    </edge>
    <edge id=":180_3" function="internal">
        <lane id=":180_3_0" index="0" speed="3.65" length="1.44" shape="751.19,962.93 750.46,961.68"/>
    </edge>
    <edge id=":180_16" function="internal">
        <lane id=":180_16_0" index="0" speed="7.58" length="11.57" shape="747.98,960.76 747.51,960.45 745.90,957.58 746.36,954.32 748.87,950.67"/>
    </edge>
    <edge id=":180_17" function="internal">
        <lane id=":180_17_0" index="0" speed="3.65" length="3.23" shape="750.46,961.68 750.45,960.79 751.16,960.24 752.59,960.05"/>
    </edge>
    <edge id=":180_4" function="internal">
        <lane id=":180_4_0" index="0" speed="5.96" length="9.09" shape="751.22,952.84 749.74,954.98 749.48,956.90 750.43,958.59 752.59,960.05"/>
    </edge>
    <edge id=":180_5" function="internal">
        <lane id=":180_5_0" index="0" speed="13.89" length="15.06" shape="751.22,952.84 748.82,955.73 746.73,958.87 745.01,962.23 743.71,965.75"/>
    </edge>
    <edge id=":180_6" function="internal">
        <lane id=":180_6_0" index="0" speed="11.47" length="16.12" shape="751.22,952.84 748.22,955.21 744.30,957.10 740.17,958.25 736.52,958.41"/>
    </edge>
    <edge id=":180_7" function="internal">
        <lane id=":180_7_0" index="0" speed="3.65" length="4.67" shape="751.22,952.84 749.82,953.18 748.96,952.93 748.65,952.09 748.87,950.67"/>
    </edge>
    <edge id=":180_8" function="internal">
        <lane id=":180_8_0" index="0" speed="10.45" length="13.30" shape="736.94,955.24 740.26,955.30 743.35,954.56 746.23,953.01 748.87,950.67"/>
    </edge>
    <edge id=":180_9" function="internal">
        <lane id=":180_9_0" index="0" speed="13.89" length="16.42" shape="736.94,955.24 740.85,955.96 744.94,957.07 748.94,958.47 752.59,960.05"/>
    </edge>
    <edge id=":180_10" function="internal">
        <lane id=":180_10_0" index="0" speed="7.75" length="4.64" shape="736.94,955.24 740.94,956.38 741.31,956.69"/>
    </edge>
    <edge id=":180_11" function="internal">
        <lane id=":180_11_0" index="0" speed="3.65" length="1.44" shape="736.94,955.24 738.03,956.19"/>
    </edge>
    <edge id=":180_18" function="internal">
        <lane id=":180_18_0" index="0" speed="7.75" length="10.19" shape="741.31,956.69 743.40,958.51 744.33,961.63 743.71,965.75"/>
    </edge>
    <edge id=":180_19" function="internal">
        <lane id=":180_19_0" index="0" speed="3.65" length="3.23" shape="738.03,956.19 738.32,957.04 737.81,957.78 736.52,958.41"/>
    </edge>
    <edge id=":180_12" function="internal">
        <lane id=":180_12_0" index="0" speed="6.19" length="9.06" shape="740.64,964.83 741.02,962.31 740.46,960.41 738.96,959.10 736.52,958.41"/>
    </edge>