<?xml version="1.0" encoding="UTF-8"?>

<!-- generated on 2026-04-16T17:52:30.658436-08:00 by Eclipse SUMO netgenerate 1.26.0
<netgenerateConfiguration xmlns:xsi="http://www.w3.org/2001/XMLSchema-instance" xsi:noNamespaceSchemaLocation="http://sumo.dlr.de/xsd/netgenerateConfiguration.xsd">

    <grid_network>
        <grid value="true"/>
        <grid.number value="3"/>
        <grid.x-number value="2"/>
        <grid.y-number value="4"/>
    </grid_network>

    <output>
        <output-file value="D:\research project\NeurIPS\logic building\Meta-MOHRL- Antigravity code building\sumo_configs\15_topologies\topo_06_asymmetric_arterial_C.net.xml"/>
    </output>

</netgenerateConfiguration>
-->

<net version="1.20" junctionCornerDetail="5" limitTurnSpeed="5.50" xmlns:xsi="http://www.w3.org/2001/XMLSchema-instance" xsi:noNamespaceSchemaLocation="http://sumo.dlr.de/xsd/net_file.xsd">

    <location netOffset="0.00,0.00" convBoundary="0.00,0.00,100.00,300.00" origBoundary="0.00,0.00,100.00,300.00" projParameter="!"/>

    <edge id=":A0_0" function="internal">
        <lane id=":A0_0_0" index="0" speed="6.08" length="7.74" shape="-1.60,3.20 -1.30,1.10 -0.40,-0.40 1.10,-1.30 3.20,-1.60"/>
    </edge>
    <edge id=":A0_1" function="internal">
        <lane id=":A0_1_0" index="0" speed="3.90" length="2.58" shape="3.20,1.60 2.50,1.70 2.00,2.00 1.70,2.50 1.60,3.20"/>
    </edge>
    <edge id=":A1_0" function="internal">
        <lane id=":A1_0_0" index="0" speed="13.89" length="14.40" shape="-1.60,107.20 -1.60,92.80"/>
    </edge>
    <edge id=":A1_1" function="internal">
        <lane id=":A1_1_0" index="0" speed="8.00" length="4.07" shape="-1.60,107.20 -1.05,103.35 -0.96,103.20"/>
    </edge>
    <edge id=":A1_2" function="internal">
        <lane id=":A1_2_0" index="0" speed="3.65" length="1.44" shape="-1.60,107.20 -0.80,106.00"/>
    </edge>
    <edge id=":A1_9" function="internal">
        <lane id=":A1_9_0" index="0" speed="8.00" length="10.13" shape="-0.96,103.20 0.60,100.60 3.35,98.95 7.20,98.40"/>
    </edge>
    <edge id=":A1_10" function="internal">
        <lane id=":A1_10_0" index="0" speed="3.65" length="3.23" shape="-0.80,106.00 0.00,105.60 0.80,106.00 1.60,107.20"/>
    </edge>
    <edge id=":A1_3" function="internal">
        <lane id=":A1_3_0" index="0" speed="6.51" length="9.03" shape="7.20,101.60 4.75,101.95 3.00,103.00 1.95,104.75 1.60,107.20"/>
    </edge>
    <edge id=":A1_4" function="internal">
        <lane id=":A1_4_0" index="0" speed="8.00" length="14.19" shape="7.20,101.60 3.35,101.05 0.60,99.40 -1.05,96.65 -1.60,92.80"/>
    </edge>
    <edge id=":A1_5" function="internal">
        <lane id=":A1_5_0" index="0" speed="3.65" length="4.67" shape="7.20,101.60 6.00,100.80 5.60,100.00 6.00,99.20 7.20,98.40"/>
    </edge>
    <edge id=":A1_6" function="internal">
        <lane id=":A1_6_0" index="0" speed="6.51" length="9.03" shape="1.60,92.80 1.95,95.25 3.00,97.00 4.75,98.05 7.20,98.40"/>
    </edge>
    <edge id=":A1_7" function="internal">
        <lane id=":A1_7_0" index="0" speed="13.89" length="14.40" shape="1.60,92.80 1.60,107.20"/>
    </edge>
    <edge id=":A1_8" function="internal">
        <lane id=":A1_8_0" index="0" speed="3.65" length="1.44" shape="1.60,92.80 0.80,94.00"/>
    </edge>
    <edge id=":A1_11" function="internal">
        <lane id=":A1_11_0" index="0" speed="3.65" length="3.23" shape="0.80,94.00 0.00,94.40 -0.80,94.00 -1.60,92.80"/>
    </edge>
    <edge id=":A2_0" function="internal">
        <lane id=":A2_0_0" index="0" speed="13.89" length="14.40" shape="-1.60,207.20 -1.60,192.80"/>
    </edge>
    <edge id=":A2_1" function="internal">
        <lane id=":A2_1_0" index="0" speed="8.00" length="4.07" shape="-1.60,207.20 -1.05,203.35 -0.96,203.20"/>
    </edge>
    <edge id=":A2_2" function="internal">
        <lane id=":A2_2_0" index="0" speed="3.65" length="1.44" shape="-1.60,207.20 -0.80,206.00"/>
    </edge>
    <edge id=":A2_9" function="internal">
        <lane id=":A2_9_0" index="0" speed="8.00" length="10.13" shape="-0.96,203.20 0.60,200.60 3.35,198.95 7.20,198.40"/>
    </edge>
    <edge id=":A2_10" function="internal">
        <lane id=":A2_10_0" index="0" speed="3.65" length="3.23" shape="-0.80,206.00 0.00,205.60 0.80,206.00 1.60,207.20"/>
    </edge>
    <edge id=":A2_3" function="internal">
        <lane id=":A2_3_0" index="0" speed="6.51" length="9.03" shape="7.20,201.60 4.75,201.95 3.00,203.00 1.95,204.75 1.60,207.20"/>
    </edge>
    <edge id=":A2_4" function="internal">
        <lane id=":A2_4_0" index="0" speed="8.00" length="14.19" shape="7.20,201.60 3.35,201.05 0.60,199.40 -1.05,196.65 -1.60,192.80"/>
    </edge>
    <edge id=":A2_5" function="internal">
        <lane id=":A2_5_0" index="0" speed="3.65" length="4.67" shape="7.20,201.60 6.00,200.80 5.60,200.00 6.00,199.20 7.20,198.40"/>
    </edge>
    <edge id=":A2_6" function="internal">
        <lane id=":A2_6_0" index="0" speed="6.51" length="9.03" shape="1.60,192.80 1.95,195.25 3.00,197.00 4.75,198.05 7.20,198.40"/>
    </edge>
    <edge id=":A2_7" function="internal">
        <lane id=":A2_7_0" index="0" speed="13.89" length="14.40" shape="1.60,192.80 1.60,207.20"/>
    </edge>
    <edge id=":A2_8" function="internal">
        <lane id=":A2_8_0" index="0" speed="3.65" length="1.44" shape="1.60,192.80 0.80,194.00"/>
    </edge>
    <edge id=":A2_11" function="internal">
        <lane id=":A2_11_0" index="0" speed="3.65" length="3.23" shape="0.80,194.00 0.00,194.40 -0.80,194.00 -1.60,192.80"/>
    </edge>
    <edge id=":A3_0" function="internal">
        <lane id=":A3_0_0" index="0" speed="6.08" length="7.74" shape="3.20,301.60 1.10,301.30 -0.40,300.40 -1.30,298.90 -1.60,296.80"/>
    </edge>
    <edge id=":A3_1" function="internal">
        <lane id=":A3_1_0" index="0" speed="3.90" length="2.58" shape="1.60,296.80 1.70,297.50 2.00,298.00 2.50,298.30 3.20,298.40"/>
    </edge>
    <edge id=":B0_0" function="internal">
        <lane id=":B0_0_0" index="0" speed="3.90" length="2.58" shape="98.40,3.20 98.30,2.50 98.00,2.00 97.50,1.70 96.80,1.60"/>
    </edge>
    <edge id=":B0_1" function="internal">
        <lane id=":B0_1_0" index="0" speed="6.08" length="7.74" shape="96.80,-1.60 98.90,-1.30 100.40,-0.40 101.30,1.10 101.60,3.20"/>
    </edge>
    <edge id=":B1_0" function="internal">
        <lane id=":B1_0_0" index="0" speed="6.51" length="9.03" shape="98.40,107.20 98.05,104.75 97.00,103.00 95.25,101.95 92.80,101.60"/>
    </edge>
    <edge id=":B1_1" function="internal">
        <lane id=":B1_1_0" index="0" speed="13.89" length="14.40" shape="98.40,107.20 98.40,92.80"/>
    </edge>
    <edge id=":B1_2" function="internal">
        <lane id=":B1_2_0" index="0" speed="3.65" length="1.44" shape="98.40,107.20 99.20,106.00"/>
    </edge>
    <edge id=":B1_9" function="internal">
        <lane id=":B1_9_0" index="0" speed="3.65" length="3.23" shape="99.20,106.00 100.00,105.60 100.80,106.00 101.60,107.20"/>
    </edge>
    <edge id=":B1_3" function="internal">
        <lane id=":B1_3_0" index="0" speed="13.89" length="14.40" shape="101.60,92.80 101.60,107.20"/>
    </edge>
    <edge id=":B1_4" function="internal">
        <lane id=":B1_4_0" index="0" speed="8.00" length="4.07" shape="101.60,92.80 101.05,96.65 100.96,96.80"/>
    </edge>
    <edge id=":B1_5" function="internal">
        <lane id=":B1_5_0" index="0" speed="3.65" length="1.44" shape="101.60,92.80 100.80,94.00"/>
    </edge>
    <edge id=":B1_10" function="internal">
        <lane id=":B1_10_0" index="0" speed="8.00" length="10.13" shape="100.96,96.80 99.40,99.40 96.65,101.05 92.80,101.60"/>
    </edge>
    <edge id=":B1_11" function="internal">
        <lane id=":B1_11_0" index="0" speed="3.65" length="3.23" shape="100.80,94.00 100.00,94.40 99.20,94.00 98.40,92.80"/>
    </edge>
    <edge id=":B1_6" function="internal">
        <lane id=":B1_6_0" index="0" speed="6.51" length="9.03" shape="92.80,98.40 95.25,98.05 97.00,97.00 98.05,95.25 98.40,92.80"/>
    </edge>
    <edge id=":B1_7" function="internal">
        <lane id=":B1_7_0" index="0" speed="8.00" length="14.19" shape="92.80,98.40 96.65,98.95 99.40,100.60 101.05,103.35 101.60,107.20"/>
    </edge>
    <edge id=":B1_8" function="internal">
        <lane id=":B1_8_0" index="0" speed="3.65" length="4.67" shape="92.80,98.40 94.00,99.20 94.40,100.00 94.00,100.80 92.80,101.60"/>
    </edge>
    <edge id=":B2_0" function="internal">
        <lane id=":B2_0_0" index="0" speed="6.51" length="9.03" shape="98.40,207.20 98.05,204.75 97.00,203.00 95.25,201.95 92.80,201.60"/>
    </edge>
    <edge id=":B2_1" function="internal">
        <lane id=":B2_1_0" index="0" speed="13.89" length="14.40" shape="98.40,207.20 98.40,192.80"/>
    </edge>
    <edge id=":B2_2" function="internal">
        <lane id=":B2_2_0" index="0" speed="3.65" length="1.44" shape="98.40,207.20 99.20,206.00"/>
    </edge>
    <edge id=":B2_9" function="internal">
        <lane id=":B2_9_0" index="0" speed="3.65" length="3.23" shape="99.20,206.00 100.00,205.60 100.80,206.00 101.60,207.20"/>
    </edge>
    <edge id=":B2_3" function="internal">
        <lane id=":B2_3_0" index="0" speed="13.89" length="14.40" shape="101.60,192.80 101.60,207.20"/>
    </edge>
    <edge id=":B2_4" function="internal">
        <lane id=":B2_4_0" index="0" speed="8.00" length="4.07" shape="101.60,192.80 101.05,196.65 100.96,196.80"/>
    </edge>
    <edge id=":B2_5" function="internal">
        <lane id=":B2_5_0" index="0" speed="3.65" length="1.44" shape="101.60,192.80 100.80,194.00"/>
    </edge>
    <edge id=":B2_10" function="internal">
        <lane id=":B2_10_0" index="0" speed="8.00" length="10.13" shape="100.96,196.80 99.40,199.40 96.65,201.05 92.80,201.60"/>
    </edge>
    <edge id=":B2_11" function="internal">
        <lane id=":B2_11_0" index="0" speed="3.65" length="3.23" shape="100.80,194.00 100.00,194.40 99.20,194.00 98.40,192.80"/>
    </edge>
    <edge id=":B2_6" function="internal">
        <lane id=":B2_6_0" index="0" speed="6.51" length="9.03" shape="92.80,198.40 95.25,198.05 97.00,197.00 98.05,195.25 98.40,192.80"/>
    </edge>
    <edge id=":B2_7" function="internal">
        <lane id=":B2_7_0" index="0" speed="8.00" length="14.19" shape="92.80,198.40 96.65,198.95 99.40,200.60 101.05,203.35 101.60,207.20"/>
    </edge>
    <edge id=":B2_8" function="internal">
        <lane id=":B2_8_0" index="0" speed="3.65" length="4.67" shape="92.80,198.40 94.00,199.20 94.40,200.00 94.00,200.80 92.80,201.60"/>
    </edge>
    <edge id=":B3_0" function="internal">
        <lane id=":B3_0_0" index="0" speed="6.08" length="7.74" shape="101.60,296.80 101.30,298.90 100.40,300.40 98.90,301.30 96.80,301.60"/>
    </edge>
    <edge id=":B3_1" function="internal">
        <lane id=":B3_1_0" index="0" speed="3.90" length="2.58" shape="96.80,298.40 97.50,298.30 98.00,298.00 98.30,297.50 98.40,296.80"/>
    </edge>

    <edge id="A0A1" from="A0" to="A1" priority="-1">
        <lane id="A0A1_0" index="0" speed="13.89" length="89.60" shape="1.60,3.20 1.60,92.80"/>
    </edge>
    <edge id="A0B0" from="A0" to="B0" priority="-1">
        <lane id="A0B0_0" index="0" speed="13.89" length="93.60" shape="3.20,-1.60 96.80,-1.60"/>
    </edge>
    <edge id="A1A0" from="A1" to="A0" priority="-1">
        <lane id="A1A0_0" index="0" speed="13.89" length="89.60" shape="-1.60,92.80 -1.60,3.20"/>
    </edge>
    <edge id="A1A2" from="A1" to="A2" priority="-1">
        <lane id="A1A2_0" index="0" speed="13.89" length="85.60" shape="1.60,107.20 1.60,192.80"/>
    </edge>
    <edge id="A1B1" from="A1" to="B1" priority="-1">
        <lane id="A1B1_0" index="0" speed="13.89" length="85.60" shape="7.20,98.40 92.80,98.40"/>
    </edge>
    <edge id="A2A1" from="A2" to="A1" priority="-1">
        <lane id="A2A1_0" index="0" speed="13.89" length="85.60" shape="-1.60,192.80 -1.60,107.20"/>
    </edge>
    <edge id="A2A3" from="A2" to="A3" priority="-1">
        <lane id="A2A3_0" index="0" speed="13.89" length="89.60" shape="1.60,207.20 1.60,296.80"/>
    </edge>
    <edge id="A2B2" from="A2" to="B2" priority="-1">
        <lane id="A2B2_0" index="0" speed="13.89" length="85.60" shape="7.20,198.40 92.80,198.40"/>
    </edge>
    <edge id="A3A2" from="A3" to="A2" priority="-1">
        <lane id="A3A2_0" index="0" speed="13.89" length="89.60" shape="-1.60,296.80 -1.60,207.20"/>
    </edge>
    <edge id="A3B3" from="A3" to="B3" priority="-1">
        <lane id="A3B3_0" index="0" speed="13.89" length="93.60" shape="3.20,298.40 96.80,298.40"/>
    </edge>
    <edge id="B0A0" from="B0" to="A0" priority="-1">
        <lane id="B0A0_0" index="0" speed="13.89" length="93.60" shape="96.80,1.60 3.20,1.60"/>
    </edge>
    <edge id="B0B1" from="B0" to="B1" priority="-1">
        <lane id="B0B1_0" index="0" speed="13.89" length="89.60" shape="101.60,3.20 101.60,92.80"/>
    </edge>
    <edge id="B1A1" from="B1" to="A1" priority="-1">
        <lane id="B1A1_0" index="0" speed="13.89" length="85.60" shape="92.80,101.60 7.20,101.60"/>
    </edge>
    <edge id="B1B0" from="B1" to="B0" priority="-1">
        <lane id="B1B0_0" index="0" speed="13.89" length="89.60" shape="98.40,92.80 98.40,3.20"/>
    </edge>
    <edge id="B1B2" from="B1" to="B2" priority="-1">
        <lane id="B1B2_0" index="0" speed="13.89" length="85.60" shape="101.60,107.20 101.60,192.80"/>
    </edge>
    <edge id="B2A2" from="B2" to="A2" priority="-1">
        <lane id="B2A2_0" index="0" speed="13.89" length="85.60" shape="92.80,201.60 7.20,201.60"/>
    </edge>
    <edge id="B2B1" from="B2" to="B1" priority="-1">
        <lane id="B2B1_0" index="0" speed="13.89" length="85.60" shape="98.40,192.80 98.40,107.20"/>
    </edge>
    <edge id="B2B3" from="B2" to="B3" priority="-1">
        <lane id="B2B3_0" index="0" speed="13.89" length="89.60" shape="101.60,207.20 101.60,296.80"/>
    </edge>
    <edge id="B3A3" from="B3" to="A3" priority="-1">
        <lane id="B3A3_0" index="0" speed="13.89" length="93.60" shape="96.80,301.60 3.20,301.60"/>
    </edge>
    <edge id="B3B2" from="B3" to="B2" priority="-1">
        <lane id="B3B2_0" index="0" speed="13.89" length="89.60" shape="98.40,296.80 98.40,207.20"/>
    </edge>

    <junction id="A0" type="priority" x="0.00" y="0.00" incLanes="A1A0_0 B0A0_0" intLanes=":A0_0_0 :A0_1_0" shape="-3.20,3.20 3.20,3.20 3.20,-3.20 -0.36,-2.49 -1.60,-1.60 -2.49,-0.36 -3.02,1.24">
        <request index="0" response="00" foes="00" cont="0"/>
        <request index="1" response="00" foes="00" cont="0"/>
    </junction>
    <junction id="A1" type="priority" x="0.00" y="100.00" incLanes="A2A1_0 B1A1_0 A0A1_0" intLanes=":A1_0_0 :A1_9_0 :A1_10_0 :A1_3_0 :A1_4_0 :A1_5_0 :A1_6_0 :A1_7_0 :A1_11_0" shape="-3.20,107.20 3.20,107.20 3.64,104.98 4.20,104.20 4.98,103.64 5.98,103.31 7.20,103.20 7.20,96.80 4.98,96.36 4.20,95.80 3.64,95.02 3.31,94.02 3.20,92.80 -3.20,92.80">
        <request index="0" response="000000000" foes="100010000" cont="0"/>
        <request index="1" response="011000000" foes="011110000" cont="1"/>
        <request index="2" response="010001000" foes="010001000" cont="1"/>
        <request index="3" response="010000000" foes="010000100" cont="0"/>
        <request index="4" response="010000011" foes="110000011" cont="0"/>
        <request index="5" response="001000010" foes="001000010" cont="0"/>
        <request index="6" response="000000000" foes="000100010" cont="0"/>
        <request index="7" response="000000000" foes="000011110" cont="0"/>
        <request index="8" response="000010001" foes="000010001" cont="1"/>
    </junction>
    <junction id="A2" type="priority" x="0.00" y="200.00" incLanes="A3A2_0 B2A2_0 A1A2_0" intLanes=":A2_0_0 :A2_9_0 :A2_10_0 :A2_3_0 :A2_4_0 :A2_5_0 :A2_6_0 :A2_7_0 :A2_11_0" shape="-3.20,207.20 3.20,207.20 3.64,204.98 4.20,204.20 4.98,203.64 5.98,203.31 7.20,203.20 7.20,196.80 4.98,196.36 4.20,195.80 3.64,195.02 3.31,194.02 3.20,192.80 -3.20,192.80">
        <request index="0" response="000000000" foes="100010000" cont="0"/>
        <request index="1" response="011000000" foes="011110000" cont="1"/>
        <request index="2" response="010001000" foes="010001000" cont="1"/>
        <request index="3" response="010000000" foes="010000100" cont="0"/>
        <request index="4" response="010000011" foes="110000011" cont="0"/>
        <request index="5" response="001000010" foes="001000010" cont="0"/>
        <request index="6" response="000000000" foes="000100010" cont="0"/>
        <request index="7" response="000000000" foes="000011110" cont="0"/>
        <request index="8" response="000010001" foes="000010001" cont="1"/>
    </junction>
    <junction id="A3" type="priority" x="0.00" y="300.00" incLanes="B3A3_0 A2A3_0" intLanes=":A3_0_0 :A3_1_0" shape="3.20,303.20 3.20,296.80 -3.20,296.80 -2.49,300.36 -1.60,301.60 -0.36,302.49 1.24,303.02">
        <request index="0" response="00" foes="00" cont="0"/>
        <request index="1" response="00" foes="00" cont="0"/>
    </junction>
    <junction id="B0" type="priority" x="100.00" y="0.00" incLanes="B1B0_0 A0B0_0" intLanes=":B0_0_0 :B0_1_0" shape="96.80,3.20 103.20,3.20 102.49,-0.36 101.60,-1.60 100.36,-2.49 98.76,-3.02 96.80,-3.20">
        <request index="0" response="00" foes="00" cont="0"/>
        <request index="1" response="00" foes="00" cont="0"/>
    </junction>
    <junction id="B1" type="priority" x="100.00" y="100.00" incLanes="B2B1_0 B0B1_0 A1B1_0" intLanes=":B1_0_0 :B1_1_0 :B1_9_0 :B1_3_0 :B1_10_0 :B1_11_0 :B1_6_0 :B1_7_0 :B1_8_0" shape="96.80,107.20 103.20,107.20 103.20,92.80 96.80,92.80 96.36,95.02 95.80,95.80 95.02,96.36 94.02,96.69 92.80,96.80 92.80,103.20 95.02,103.64 95.80,104.20 96.36,104.98 96.69,105.98">
        <request index="0" response="000000000" foes="100010000" cont="0"/>
        <request index="1" response="000000000" foes="011110000" cont="0"/>
        <request index="2" response="010001000" foes="010001000" cont="1"/>
        <request index="3" response="000000000" foes="010000100" cont="0"/>
        <request index="4" response="000000011" foes="110000011" cont="1"/>
        <request index="5" response="001000010" foes="001000010" cont="1"/>
        <request index="6" response="000000010" foes="000100010" cont="0"/>
        <request index="7" response="000011010" foes="000011110" cont="0"/>
        <request index="8" response="000010001" foes="000010001" cont="0"/>
    </junction>
    <junction id="B2" type="priority" x="100.00" y="200.00" incLanes="B3B2_0 B1B2_0 A2B2_0" intLanes=":B2_0_0 :B2_1_0 :B2_9_0 :B2_3_0 :B2_10_0 :B2_11_0 :B2_6_0 :B2_7_0 :B2_8_0" shape="96.80,207.20 103.20,207.20 103.20,192.80 96.80,192.80 96.36,195.02 95.80,195.80 95.02,196.36 94.02,196.69 92.80,196.80 92.80,203.20 95.02,203.64 95.80,204.20 96.36,204.98 96.69,205.98">
        <request index="0" response="000000000" foes="100010000" cont="0"/>
        <request index="1" response="000000000" foes="011110000" cont="0"/>
        <request index="2" response="010001000" foes="010001000" cont="1"/>
        <request index="3" response="000000000" foes="010000100" cont="0"/>
        <request index="4" response="000000011" foes="110000011" cont="1"/>
        <request index="5" response="001000010" foes="001000010" cont="1"/>
        <request index="6" response="000000010" foes="000100010" cont="0"/>
        <request index="7" response="000011010" foes="000011110" cont="0"/>
        <request index="8" response="000010001" foes="000010001" cont="0"/>
    </junction>
    <junction id="B3" type="priority" x="100.00" y="300.00" incLanes="B2B3_0 A3B3_0" intLanes=":B3_0_0 :B3_1_0" shape="103.20,296.80 96.80,296.80 96.80,303.20 100.36,302.49 101.60,301.60 102.49,300.36 103.02,298.76">
        <request index="0" response="00" foes="00" cont="0"/>
        <request index="1" response="00" foes="00" cont="0"/>
    </junction>

    <junction id=":A1_9_0" type="internal" x="-0.96" y="103.20" incLanes=":A1_1_0 A0A1_0" intLanes=":A1_4_0 :A1_5_0 :A1_6_0 :A1_7_0"/>
    <junction id=":A1_10_0" type="internal" x="-0.80" y="106.00" incLanes=":A1_2_0 A0A1_0 B1A1_0" intLanes=":A1_3_0 :A1_7_0"/>
    <junction id=":A1_11_0" type="internal" x="0.80" y="94.00" incLanes=":A1_8_0 A2A1_0 B1A1_0" intLanes=":A1_0_0 :A1_4_0"/>
    <junction id=":A2_9_0" type="internal" x="-0.96" y="203.20" incLanes=":A2_1_0 A1A2_0" intLanes=":A2_4_0 :A2_5_0 :A2_6_0 :A2_7_0"/>
    <junction id=":A2_10_0" type="internal" x="-0.80" y="206.00" incLanes=":A2_2_0 A1A2_0 B2A2_0" intLanes=":A2_3_0 :A2_7_0"/>
    <junction id=":A2_11_0" type="internal" x="0.80" y="194.00" incLanes=":A2_8_0 A3A2_0 B2A2_0" intLanes=":A2_0_0 :A2_4_0"/>
    <junction id=":B1_9_0" type="internal" x="99.20" y="106.00" incLanes=":B1_2_0 A1B1_0 B0B1_0" intLanes=":B1_3_0 :B1_7_0"/>
    <junction id=":B1_10_0" type="internal" x="100.96" y="96.80" incLanes=":B1_4_0 B2B1_0" intLanes=":B1_0_0 :B1_1_0 :B1_7_0 :B1_8_0"/>
    <junction id=":B1_11_0" type="internal" x="100.80" y="94.00" incLanes=":B1_5_0 A1B1_0 B2B1_0" intLanes=":B1_1_0 :B1_6_0"/>
    <junction id=":B2_9_0" type="internal" x="99.20" y="206.00" incLanes=":B2_2_0 A2B2_0 B1B2_0" intLanes=":B2_3_0 :B2_7_0"/>
    <junction id=":B2_10_0" type="internal" x="100.96" y="196.80" incLanes=":B2_4_0 B3B2_0" intLanes=":B2_0_0 :B2_1_0 :B2_7_0 :B2_8_0"/>
    <junction id=":B2_11_0" type="internal" x="100.80" y="194.00" incLanes=":B2_5_0 A2B2_0 B3B2_0" intLanes=":B2_1_0 :B2_6_0"/>

    <connection from="A0A1" to="A1B1" fromLane="0" toLane="0" via=":A1_6_0" dir="r" state="M"/>
    <connection from="A0A1" to="A1A2" fromLane="0" toLane="0" via=":A1_7_0" dir="s" state="M"/>
    <connection from="A0A1" to="A1A0" fromLane="0" toLane="0" via=":A1_8_0" dir="t" state="m"/>
    <connection from="A0B0" to="B0B1" fromLane="0" toLane="0" via=":B0_1_0" dir="l" state="M"/>
    <connection from="A1A0" to="A0B0" fromLane="0" toLane="0" via=":A0_0_0" dir="l" state="M"/>
    <connection from="A1A2" to="A2B2" fromLane="0" toLane="0" via=":A2_6_0" dir="r" state="M"/>
    <connection from="A1A2" to="A2A3" fromLane="0" toLane="0" via=":A2_7_0" dir="s" state="M"/>
    <connection from="A1A2" to="A2A1" fromLane="0" toLane="0" via=":A2_8_0" dir="t" state="m"/>
    <connection from="A1B1" to="B1B0" fromLane="0" toLane="0" via=":B1_6_0" dir="r" state="m"/>
    <connection from="A1B1" to="B1B2" fromLane="0" toLane="0" via=":B1_7_0" dir="l" state="m"/>
    <connection from="A1B1" to="B1A1" fromLane="0" toLane="0" via=":B1_8_0" dir="t" state="m"/>
    <connection from="A2A1" to="A1A0" fromLane="0" toLane="0" via=":A1_0_0" dir="s" state="M"/>
    <connection from="A2A1" to="A1B1" fromLane="0" toLane="0" via=":A1_1_0" dir="l" state="m"/>
    <connection from="A2A1" to="A1A2" fromLane="0" toLane="0" via=":A1_2_0" dir="t" state="m"/>
    <connection from="A2A3" to="A3B3" fromLane="0" toLane="0" via=":A3_1_0" dir="r" state="M"/>
    <connection from="A2B2" to="B2B1" fromLane="0" toLane="0" via=":B2_6_0" dir="r" state="m"/>
    <connection from="A2B2" to="B2B3" fromLane="0" toLane="0" via=":B2_7_0" dir="l" state="m"/>
    <connection from="A2B2" to="B2A2" fromLane="0" toLane="0" via=":B2_8_0" dir="t" state="m"/>
    <connection from="A3A2" to="A2A1" fromLane="0" toLane="0" via=":A2_0_0" dir="s" state="M"/>
    <connection from="A3A2" to="A2B2" fromLane="0" toLane="0" via=":A2_1_0" dir="l" state="m"/>
    <connection from="A3A2" to="A2A3" fromLane="0" toLane="0" via=":A2_2_0" dir="t" state="m"/>
    <connection from="A3B3" to="B3B2" fromLane="0" toLane="0" via=":B3_1_0" dir="r" state="M"/>
    <connection from="B0A0" to="A0A1" fromLane="0" toLane="0" via=":A0_1_0" dir="r" state="M"/>
    <connection from="B0B1" to="B1B2" fromLane="0" toLane="0" via=":B1_3_0" dir="s" state="M"/>
    <connection from="B0B1" to="B1A1" fromLane="0" toLane="0" via=":B1_4_0" dir="l" state="m"/>
    <connection from="B0B1" to="B1B0" fromLane="0" toLane="0" via=":B1_5_0" dir="t" state="m"/>
    <connection from="B1A1" to="A1A2" fromLane="0" toLane="0" via=":A1_3_0" dir="r" state="m"/>
    <connection from="B1A1" to="A1A0" fromLane="0" toLane="0" via=":A1_4_0" dir="l" state="m"/>
    <connection from="B1A1" to="A1B1" fromLane="0" toLane="0" via=":A1_5_0" dir="t" state="m"/>
    <connection from="B1B0" to="B0A0" fromLane="0" toLane="0" via=":B0_0_0" dir="r" state="M"/>
    <connection from="B1B2" to="B2B3" fromLane="0" toLane="0" via=":B2_3_0" dir="s" state="M"/>
    <connection from="B1B2" to="B2A2" fromLane="0" toLane="0" via=":B2_4_0" dir="l" state="m"/>
    <connection from="B1B2" to="B2B1" fromLane="0" toLane="0" via=":B2_5_0" dir="t" state="m"/>
    <connection from="B2A2" to="A2A3" fromLane="0" toLane="0" via=":A2_3_0" dir="r" state="m"/>
    <connection from="B2A2" to="A2A1" fromLane="0" toLane="0" via=":A2_4_0" dir="l" state="m"/>
    <connection from="B2A2" to="A2B2" fromLane="0" toLane="0" via=":A2_5_0" dir="t" state="m"/>
    <connection from="B2B1" to="B1A1" fromLane="0" toLane="0" via=":B1_0_0" dir="r" state="M"/>
    <connection from="B2B1" to="B1B0" fromLane="0" toLane="0" via=":B1_1_0" dir="s" state="M"/>
    <connection from="B2B1" to="B1B2" fromLane="0" toLane="0" via=":B1_2_0" dir="t" state="m"/>
    <connection from="B2B3" to="B3A3" fromLane="0" toLane="0" via=":B3_0_0" dir="l" state="M"/>
    <connection from="B3A3" to="A3A2" fromLane="0" toLane="0" via=":A3_0_0" dir="l" state="M"/>
    <connection from="B3B2" to="B2A2" fromLane="0" toLane="0" via=":B2_0_0" dir="r" state="M"/>
    <connection from="B3B2" to="B2B1" fromLane="0" toLane="0" via=":B2_1_0" dir="s" state="M"/>
    <connection from="B3B2" to="B2B3" fromLane="0" toLane="0" via=":B2_2_0" dir="t" state="m"/>

    <connection from=":A0_0" to="A0B0" fromLane="0" toLane="0" dir="l" state="M"/>
    <connection from=":A0_1" to="A0A1" fromLane="0" toLane="0" dir="r" state="M"/>
    <connection from=":A1_0" to="A1A0" fromLane="0" toLane="0" dir="s" state="M"/>
    <connection from=":A1_1" to="A1B1" fromLane="0" toLane="0" via=":A1_9_0" dir="l" state="m"/>
    <connection from=":A1_9" to="A1B1" fromLane="0" toLane="0" dir="l" state="M"/>
    <connection from=":A1_2" to="A1A2" fromLane="0" toLane="0" via=":A1_10_0" dir="t" state="m"/>
    <connection from=":A1_10" to="A1A2" fromLane="0" toLane="0" dir="t" state="M"/>
    <connection from=":A1_3" to="A1A2" fromLane="0" toLane="0" dir="r" state="M"/>
    <connection from=":A1_4" to="A1A0" fromLane="0" toLane="0" dir="l" state="M"/>
    <connection from=":A1_5" to="A1B1" fromLane="0" toLane="0" dir="t" state="M"/>
    <connection from=":A1_6" to="A1B1" fromLane="0" toLane="0" dir="r" state="M"/>
    <connection from=":A1_7" to="A1A2" fromLane="0" toLane="0" dir="s" state="M"/>
    <connection from=":A1_8" to="A1A0" fromLane="0" toLane="0" via=":A1_11_0" dir="t" state="m"/>
    <connection from=":A1_11" to="A1A0" fromLane="0" toLane="0" dir="t" state="M"/>
    <connection from=":A2_0" to="A2A1" fromLane="0" toLane="0" dir="s" state="M"/>
    <connection from=":A2_1" to="A2B2" fromLane="0" toLane="0" via=":A2_9_0" dir="l" state="m"/>
    <connection from=":A2_9" to="A2B2" fromLane="0" toLane="0" dir="l" state="M"/>
    <connection from=":A2_2" to="A2A3" fromLane="0" toLane="0" via=":A2_10_0" dir="t" state="m"/>
    <connection from=":A2_10" to="A2A3" fromLane="0" toLane="0" dir="t" state="M"/>
    <connection from=":A2_3" to="A2A3" fromLane="0" toLane="0" dir="r" state="M"/>
    <connection from=":A2_4" to="A2A1" fromLane="0" toLane="0" dir="l" state="M"/>
    <connection from=":A2_5" to="A2B2" fromLane="0" toLane="0" dir="t" state="M"/>
    <connection from=":A2_6" to="A2B2" fromLane="0" toLane="0" dir="r" state="M"/>
    <connection from=":A2_7" to="A2A3" fromLane="0" toLane="0" dir="s" state="M"/>
    <connection from=":A2_8" to="A2A1" fromLane="0" toLane="0" via=":A2_11_0" dir="t" state="m"/>
    <connection from=":A2_11" to="A2A1" fromLane="0" toLane="0" dir="t" state="M"/>
    <connection from=":A3_0" to="A3A2" fromLane="0" toLane="0" dir="l" state="M"/>
    <connection from=":A3_1" to="A3B3" fromLane="0" toLane="0" dir="r" state="M"/>
    <connection from=":B0_0" to="B0A0" fromLane="0" toLane="0" dir="r" state="M"/>
    <connection from=":B0_1" to="B0B1" fromLane="0" toLane="0" dir="l" state="M"/>
    <connection from=":B1_0" to="B1A1" fromLane="0" toLane="0" dir="r" state="M"/>
    <connection from=":B1_1" to="B1B0" fromLane="0" toLane="0" dir="s" state="M"/>
    <connection from=":B1_2" to="B1B2" fromLane="0" toLane="0" via=":B1_9_0" dir="t" state="m"/>
    <connection from=":B1_9" to="B1B2" fromLane="0" toLane="0" dir="t" state="M"/>
    <connection from=":B1_3" to="B1B2" fromLane="0" toLane="0" dir="s" state="M"/>
    <connection from=":B1_4" to="B1A1" fromLane="0" toLane="0" via=":B1_10_0" dir="l" state="m"/>
    <connection from=":B1_10" to="B1A1" fromLane="0" toLane="0" dir="l" state="M"/>
    <connection from=":B1_5" to="B1B0" fromLane="0" toLane="0" via=":B1_11_0" dir="t" state="m"/>
    <connection from=":B1_11" to="B1B0" fromLane="0" toLane="0" dir="t" state="M"/>
    <connection from=":B1_6" to="B1B0" fromLane="0" toLane="0" dir="r" state="M"/>
    <connection from=":B1_7" to="B1B2" fromLane="0" toLane="0" dir="l" state="M"/>
    <connection from=":B1_8" to="B1A1" fromLane="0" toLane="0" dir="t" state="M"/>
    <connection from=":B2_0" to="B2A2" fromLane="0" toLane="0" dir="r" state="M"/>
    <connection from=":B2_1" to="B2B1" fromLane="0" toLane="0" dir="s" state="M"/>
    <connection from=":B2_2" to="B2B3" fromLane="0" toLane="0" via=":B2_9_0" dir="t" state="m"/>
    <connection from=":B2_9" to="B2B3" fromLane="0" toLane="0" dir="t" state="M"/>
    <connection from=":B2_3" to="B2B3" fromLane="0" toLane="0" dir="s" state="M"/>
    <connection from=":B2_4" to="B2A2" fromLane="0" toLane="0" via=":B2_10_0" dir="l" state="m"/>
    <connection from=":B2_10" to="B2A2" fromLane="0" toLane="0" dir="l" state="M"/>
    <connection from=":B2_5" to="B2B1" fromLane="0" toLane="0" via=":B2_11_0" dir="t" state="m"/>
    <connection from=":B2_11" to="B2B1" fromLane="0" toLane="0" dir="t" state="M"/>