<?xml version="1.0" encoding="UTF-8"?>

<!-- generated on 2026-04-16 17:52:30.425902 by Eclipse SUMO randomTrips.py v1_26_0+0000-fa7df22d7f1
<configuration>
    <net-file value="D:\research project\NeurIPS\logic building\Meta-MOHRL- Antigravity code building\sumo_configs\15_topologies\topo_05_asymmetric_arterial_B.net.xml"/>
    <output-trip-file value="D:\research project\NeurIPS\logic building\Meta-MOHRL- Antigravity code building\sumo_configs\15_topologies\topo_05_asymmetric_arterial_B_trips.xml"/>
    <route-file value="D:\research project\NeurIPS\logic building\Meta-MOHRL- Antigravity code building\sumo_configs\15_topologies\topo_05_asymmetric_arterial_B.rou.xml"/>
    <end value="1000.0"/>
    <period value="0.4"/>
</configuration>
-->

<!-- generated on 2026-04-16T17:52:30.279040-08:00 by Eclipse SUMO duarouter 1.26.0
<duarouterConfiguration xmlns:xsi="http://www.w3.org/2001/XMLSchema-instance" xsi:noNamespaceSchemaLocation="http://sumo.dlr.de/xsd/duarouterConfiguration.xsd">

    <input>
        <net-file value="D:\research project\NeurIPS\logic building\Meta-MOHRL- Antigravity code building\sumo_configs\15_topologies\topo_05_asymmetric_arterial_B.net.xml"/>
        <route-files value="D:\research project\NeurIPS\logic building\Meta-MOHRL- Antigravity code building\sumo_configs\15_topologies\topo_05_asymmetric_arterial_B_trips.xml"/>
    </input>

    <output>
        <output-file value="D:\research project\NeurIPS\logic building\Meta-MOHRL- Antigravity code building\sumo_configs\15_topologies\topo_05_asymmetric_arterial_B.rou.xml"/>
        <alternatives-output value="NUL"/>
    </output>

    <time>
        <begin value="0.0"/>
        <end value="1000.0"/>
    </time>

    <report>
        <no-warnings value="true"/>
        <ignore-errors value="true"/>
        <no-step-log value="true"/>
    </report>

</duarouterConfiguration>
-->

<routes xmlns:xsi="http://www.w3.org/2001/XMLSchema-instance" xsi:noNamespaceSchemaLocation="http://sumo.dlr.de/xsd/routes_file.xsd">
    <vehicle id="0" depart="0.00">
        <route edges="C3C4 C4B4 B4A1 A1B2"/>
    </vehicle>
    <vehicle id="1" depart="0.40">
        <route edges="B3B2 B2B3"/>
    </vehicle>
    <vehicle id="2" depart="0.80">
        <route edges="C4D4 D4C4 C4B4"/>
    </vehicle>
    <vehicle id="3" depart="1.20">
        <route edges="D3C3 C3B3 B3A1 A1B1 B1A1"/>
    </vehicle>
    <vehicle id="4" depart="1.60">
        <route edges="C1B1 B1A1 A1B2"/>
    </vehicle>
    <vehicle id="5" depart="2.00">
        <route edges="B2B3 B3C3 C3C2 C2B2"/>
    </vehicle>
    <vehicle id="6" depart="2.40">
        <route edges="A1B2 B2B1"/>
    </vehicle>
    <vehicle id="7" depart="2.80">
        <route edges="C3D3 D3D2 D2C2 C2C3"/>
    </vehicle>
    <vehicle id="8" depart="3.20">
        <route edges="B2B3 B3C3 C3B3"/>
    </vehicle>
    <vehicle id="9" depart="3.60">
        <route edges="D1D4 D4C4 C4B4 B4A1 A1B1"/>
    </vehicle>
    <vehicle id="10" depart="4.00">
        <route edges="D1D4 D4C4 C4C1"/>
    </vehicle>
    <vehicle id="11" depart="4.40">
        <route edges="B4A1 A1B1 B1C1"/>
    </vehicle>
    <vehicle id="12" depart="4.80">
        <route edges="D4C4 C4B4 B4A1"/>
    </vehicle>
    <vehicle id="13" depart="5.20">
        <route edges="B1A1"/>
    </vehicle>
    <vehicle id="14" depart="5.60">
        <route edges="D2D1 D1C1 C1B1 B1A1 A1B3 B3C3 C3B3"/>
    </vehicle>
    <vehicle id="15" depart="6.00">
        <route edges="D1D4 D4C4 C4D4"/>
    </vehicle>
    <vehicle id="16" depart="6.40">
        <route edges="C2C1 C1C4 C4D4 D4D1"/>
    </vehicle>
    <vehicle id="17" depart="6.80">
        <route edges="B4B3 B3B2 B2C2 C2C3"/>
    </vehicle>
    <vehicle id="18" depart="7.20">
        <route edges="D2C2 C2C3 C3C2"/>
    </vehicle>
    <vehicle id="19" depart="7.60">
        <route edges="D2D3 D3C3 C3C2 C2D2"/>
    </vehicle>
    <vehicle id="20" depart="8.00">
        <route edges="C4C1 C1B1 B1A1 A1B3"/>
    </vehicle>
    <vehicle id="21" depart="8.40">
        <route edges="B2B3 B3B2"/>
    </vehicle>
    <vehicle id="22" depart="8.80">
        <route edges="A1B4 B4B3 B3B2 B2C2"/>
    </vehicle>
    <vehicle id="23" depart="9.20">
        <route edges="B1A1 A1B3 B3B2"/>
    </vehicle>
    <vehicle id="24" depart="9.60">
        <route edges="C3C4 C4B4 B4B1"/>
    </vehicle>
    <vehicle id="25" depart="10.00">
        <route edges="B4B1 B1B2 B2B3"/>
    </vehicle>
    <vehicle id="26" depart="10.40">
        <route edges="B3A1 A1B3 B3C3 C3D3 D3D4"/>
    </vehicle>
    <vehicle id="27" depart="10.80">
        <route edges="C3D3 D3C3 C3C2"/>
    </vehicle>
    <vehicle id="28" depart="11.20">
        <route edges="B2A1 A1B4 B4C4 C4C3"/>
    </vehicle>
    <vehicle id="29" depart="11.60">
        <route edges="B1C1 C1B1 B1B4 B4B3"/>
    </vehicle>
    <vehicle id="30" depart="12.00">
        <route edges="D4D3 D3C3 C3C4"/>
    </vehicle>
    <vehicle id="31" depart="12.40">
        <route edges="C2C3 C3C4 C4B4"/>
    </vehicle>
    <vehicle id="32" depart="12.80">
        <route edges="D2D1 D1D2"/>
    </vehicle>
    <vehicle id="33" depart="13.20">
        <route edges="B2B3 B3A1 A1B2"/>
    </vehicle>
    <vehicle id="34" depart="13.60">
        <route edges="B3C3 C3B3 B3A1"/>
    </vehicle>
    <vehicle id="35" depart="14.00">
        <route edges="B2B3 B3B4 B4C4 C4D4 D4C4"/>
    </vehicle>
    <vehicle id="36" depart="14.40">
        <route edges="D3C3 C3B3 B3C3"/>
    </vehicle>
    <vehicle id="37" depart="14.80">
        <route edges="C3D3 D3C3 C3B3 B3B4 B4B3"/>
    </vehicle>
    <vehicle id="38" depart="15.20">
        <route edges="D3D2 D2C2 C2C1 C1C4"/>
    </vehicle>
    <vehicle id="39" depart="15.60">
        <route edges="B3A1 A1B2 B2C2"/>
    </vehicle>
    <vehicle id="40" depart="16.00">
        <route edges="C2C3 C3B3 B3A1"/>
    </vehicle>
    <vehicle id="41" depart="16.40">
        <route edges="C3B3 B3C3 C3D3 D3D2"/>
    </vehicle>
    <vehicle id="42" depart="16.80">
        <route edges="B4C4 C4B4 B4A1 A1B2 B2B3"/>
    </vehicle>
    <vehicle id="43" depart="17.20">
        <route edges="D4D3 D3C3 C3C2 C2B2"/>
    </vehicle>
    <vehicle id="44" depart="17.60">
        <route edges="B1A1 A1B3"/>
    </vehicle>
    <vehicle id="45" depart="18.00">
        <route edges="B1B2 B2B3 B3C3 C3C4"/>
    </vehicle>
    <vehicle id="46" depart="18.40">
        <route edges="D1D4 D4C4 C4C1 C1B1"/>
    </vehicle>
    <vehicle id="47" depart="18.80">
        <route edges="A1B4 B4B3"/>
    </vehicle>
    <vehicle id="48" depart="19.20">
        <route edges="D4D3 D3C3 C3C2 C2C1"/>
    </vehicle>
    <vehicle id="49" depart="19.60">
        <route edges="D4D1 D1D2 D2D3"/>
    </vehicle>
    <vehicle id="50" depart="20.00">
        <route edges="A1B1 B1B4 B4C4 C4C3"/>
    </vehicle>
    <vehicle id="51" depart="20.40">
        <route edges="C4B4 B4A1 A1B2 B2C2 C2C1"/>
    </vehicle>
    <vehicle id="52" depart="20.80">
        <route edges="B3A1 A1B3 B3C3 C3C4"/>
    </vehicle>
    <vehicle id="53" depart="21.20">
        <route edges="B1B2 B2C2 C2C1 C1B1"/>
    </vehicle>
    <vehicle id="54" depart="21.60">
        <route edges="C1C2 C2B2 B2A1 A1B4 B4C4 C4D4 D4C4"/>
    </vehicle>
    <vehicle id="55" depart="22.00">
        <route edges="D3C3 C3B3 B3A1"/>
    </vehicle>
    <vehicle id="56" depart="22.40">
        <route edges="C2B2 B2A1"/>
    </vehicle>
    <vehicle id="57" depart="22.80">
        <route edges="D3D2 D2D3"/>
    </vehicle>
    <vehicle id="58" depart="23.20">
        <route edges="B3B4 B4B3 B3C3 C3C4"/>
    </vehicle>
    <vehicle id="59" depart="23.60">
        <route edges="C3C2 C2B2 B2B1 B1C1"/>
    </vehicle>
    <vehicle id="60" depart="24.00">
        <route edges="D1C1 C1C2 C2C1"/>
    </vehicle>
    <vehicle id="61" depart="24.40">
        <route edges="D1D2 D2C2 C2C1"/>
    </vehicle>
    <vehicle id="62" depart="24.80">
        <route edges="A1B1 B1B4 B4B3 B3C3"/>
    </vehicle>
    <vehicle id="63" depart="25.20">
        <route edges="A1B1 B1B4 B4B3 B3C3 C3D3 D3D4"/>
    </vehicle>
    <vehicle id="64" depart="25.60">
        <route edges="D3C3 C3C2 C2D2 D2C2"/>
    </vehicle>
    <vehicle id="65" depart="26.00">
        <route edges="B3B4 B4A1 A1B3"/>
    </vehicle>
    <vehicle id="66" depart="26.40">
        <route edges="D3C3 C3C4 C4D4 D4C4"/>
    </vehicle>
    <vehicle id="67" depart="26.80">
        <route edges="B1A1 A1B1 B1C1 C1D1"/>
    </vehicle>
    <vehicle id="68" depart="27.20">
        <route edges="A1B4 B4B1 B1C1 C1D1 D1C1"/>
    </vehicle>
    <vehicle id="69" depart="27.60">
        <route edges="D1C1 C1B1 B1B4"/>
    </vehicle>
    <vehicle id="70" depart="28.00">
        <route edges="C1C4 C4B4 B4A1 A1B2 B2C2 C2C3"/>
    </vehicle>
    <vehicle id="71" depart="28.40">
        <route edges="B3A1 A1B2 B2C2 C2D2 D2D3"/>
    </vehicle>
    <vehicle id="72" depart="28.80">
        <route edges="C1B1 B1B2 B2B3"/>
    </vehicle>
    <vehicle id="73" depart="29.20">
        <route edges="C2C1 C1C4 C4D4"/>
    </vehicle>
    <vehicle id="74" depart="29.60">
        <route edges="B2B1 B1A1 A1B3 B3B4"/>
    </vehicle>
    <vehicle id="75" depart="30.00">
        <route edges="D4D3 D3C3 C3D3"/>
    </vehicle>
    <vehicle id="76" depart="30.40">
        <route edges="C1C2 C2B2"/>
    </vehicle>
    <vehicle id="77" depart="30.80">
        <route edges="B1B2 B2B3"/>
    </vehicle>
    <vehicle id="78" depart="31.20">
        <route edges="B4A1 A1B3 B3C3 C3B3"/>
    </vehicle>
    <vehicle id="79" depart="31.60">
        <route edges="B2C2 C2B2 B2B3"/>
    </vehicle>
    <vehicle id="80" depart="32.00">
        <route edges="A1B4 B4B3 B3C3 C3C4"/>
    </vehicle>
    <vehicle id="81" depart="32.40">
        <route edges="B2B3 B3C3 C3D3 D3D2"/>
    </vehicle>
    <vehicle id="82" depart="32.80">
        <route edges="D2D3 D3C3 C3B3 B3A1 A1B4"/>
    </vehicle>
    <vehicle id="83" depart="33.20">
        <route edges="B2C2 C2C1 C1C4 C4B4"/>
    </vehicle>
    <vehicle id="84" depart="33.60">
        <route edges="B2B3 B3A1 A1B1 B1B4"/>
    </vehicle>
    <vehicle id="85" depart="34.00">
        <route edges="D3D4 D4C4 C4B4 B4A1 A1B2 B2C2 C2D2"/>
    </vehicle>
    <vehicle id="86" depart="34.40">
        <route edges="C1C4 C4C1 C1D1 D1D2"/>
    </vehicle>
    <vehicle id="87" depart="34.80">
        <route edges="D1D4 D4C4 C4B4 B4A1 A1B2 B2B1"/>
    </vehicle>
    <vehicle id="88" depart="35.20">
        <route edges="B1A1 A1B1 B1C1 C1B1"/>
    </vehicle>
    <vehicle id="89" depart="35.60">
        <route edges="C1B1 B1C1 C1C4"/>
    </vehicle>
    <vehicle id="90" depart="36.00">
        <route edges="C4C3 C3C4 C4B4"/>
    </vehicle>
    <vehicle id="91" depart="36.40">
        <route edges="D4D3 D3C3 C3B3 B3A1 A1B1 B1A1"/>
    </vehicle>
    <vehicle id="92" depart="36.80">
        <route edges="B4C4 C4B4 B4A1"/>
    </vehicle>
    <vehicle id="93" depart="37.20">
        <route edges="D2D3 D3C3 C3B3 B3B2 B2C2"/>
    </vehicle>
    <vehicle id="94" depart="37.60">
        <route edges="B2B1 B1C1 C1C2"/>
    </vehicle>
    <vehicle id="95" depart="38.00">
        <route edges="C1B1 B1A1 A1B3 B3B2"/>
    </vehicle>
    <vehicle id="96" depart="38.40">
        <route edges="B2C2 C2C3 C3D3 D3D4"/>
    </vehicle>
    <vehicle id="97" depart="38.80">
        <route edges="C1C2 C2D2 D2D3"/>
    </vehicle>
    <vehicle id="98" depart="39.20">
        <route edges="C2C3 C3B3 B3A1 A1B3"/>
    </vehicle>
    <vehicle id="99" depart="39.60">
        <route edges="D4D3 D3D2 D2D1"/>
    </vehicle>
    <vehicle id="100" depart="40.00">
        <route edges="D4D1 D1C1 C1B1 B1A1 A1B3 B3C3 C3D3 D3D4"/>
    </vehicle>
    <vehicle id="101" depart="40.40">
        <route edges="D2D1 D1C1 C1B1 B1C1"/>
    </vehicle>
    <vehicle id="102" depart="40.80">
        <route edges="C1D1 D1C1 C1B1 B1B2 B2B3"/>
    </vehicle>
    <vehicle id="103" depart="41.20">
        <route edges="B4C4 C4B4 B4A1 A1B3"/>
    </vehicle>
    <vehicle id="104" depart="41.60">
        <route edges="B4B3 B3B4 B4C4 C4D4 D4D3"/>
    </vehicle>
    <vehicle id="105" depart="42.00">
        <route edges="B3A1 A1B1 B1C1 C1D1 D1D2"/>
    </vehicle>
    <vehicle id="106" depart="42.40">
        <route edges="C1C2 C2C1 C1B1"/>
    </vehicle>
    <vehicle id="107" depart="42.80">
        <route edges="D4C4 C4D4 D4D3"/>
    </vehicle>
    <vehicle id="108" depart="43.20">
        <route edges="C2C3 C3C4 C4C3"/>
    </vehicle>
    <vehicle id="109" depart="43.60">
        <route edges="B1C1 C1B1 B1A1 A1B3 B3B4"/>
    </vehicle>
    <vehicle id="110" depart="44.00">
        <route edges="D4D1 D1C1 C1C2 C2D2"/>
    </vehicle>
    <vehicle id="111" depart="44.40">
        <route edges="C2C3 C3C4 C4D4"/>
    </vehicle>
    <vehicle id="112" depart="44.80">
        <route edges="A1B3 B3C3 C3B3"/>
    </vehicle>
    <vehicle id="113" depart="45.20">
        <route edges="C2B2 B2C2 C2D2 D2D1"/>
    </vehicle>
    <vehicle id="114" depart="45.60">
        <route edges="B1C1 C1C4 C4D4 D4D1"/>
    </vehicle>
    <vehicle id="115" depart="46.00">
        <route edges="A1B4 B4B3 B3B2 B2A1"/>
    </vehicle>
    <vehicle id="116" depart="46.40">
        <route edges="C3B3 B3B4 B4C4 C4B4"/>
    </vehicle>
    <vehicle id="117" depart="46.80">
        <route edges="B2C2 C2C1 C1B1 B1B2"/>
    </vehicle>
    <vehicle id="118" depart="47.20">
        <route edges="D3C3 C3B3 B3B2 B2C2"/>
    </vehicle>
    <vehicle id="119" depart="47.60">
        <route edges="C3B3 B3C3 C3C2"/>
    </vehicle>
    <vehicle id="120" depart="48.00">
        <route edges="C1B1 B1A1 A1B3 B3C3 C3B3"/>
    </vehicle>
    <vehicle id="121" depart="48.40">
        <route edges="C2C1 C1B1 B1A1 A1B3 B3C3 C3D3 D3D4"/>
    </vehicle>
    <vehicle id="122" depart="48.80">
        <route edges="B2B1 B1B4 B4C4 C4C3"/>
    </vehicle>
    <vehicle id="123" depart="49.20">
        <route edges="B2C2 C2B2 B2A1 A1B4 B4B3"/>
    </vehicle>
    <vehicle id="124" depart="49.60">
        <route edges="C4B4 B4B3 B3B4"/>
    </vehicle>
    <vehicle id="125" depart="50.00">
        <route edges="B3C3 C3B3 B3A1 A1B1 B1C1 C1D1 D1C1"/>
    </vehicle>
    <vehicle id="126" depart="50.40">
        <route edges="A1B4 B4B1 B1C1 C1C2"/>
    </vehicle>
    <vehicle id="127" depart="50.80">
        <route edges="D4D3"/>
    </vehicle>
    <vehicle id="128" depart="51.20">
        <route edges="A1B4 B4B3 B3B2 B2B3"/>
    </vehicle>
    <vehicle id="129" depart="51.60">
        <route edges="B3A1 A1B3 B3C3 C3D3 D3D4"/>
    </vehicle>
    <vehicle id="130" depart="52.00">
        <route edges="D3C3"/>
    </vehicle>
    <vehicle id="131" depart="52.40">
        <route edges="B4B1 B1C1"/>
    </vehicle>
    <vehicle id="132" depart="52.80">
        <route edges="D2D1 D1C1 C1C4 C4C1"/>
    </vehicle>
    <vehicle id="133" depart="53.20">
        <route edges="C3C2 C2B2 B2A1 A1B4 B4C4 C4D4 D4D3"/>
    </vehicle>
    <vehicle id="134" depart="53.60">
        <route edges="C3D3 D3C3 C3B3 B3A1 A1B1"/>
    </vehicle>
    <vehicle id="135" depart="54.00">
        <route edges="D2C2 C2B2 B2B3 B3B4"/>
    </vehicle>
    <vehicle id="136" depart="54.40">
        <route edges="C3D3 D3D4 D4C4"/>
    </vehicle>
    <vehicle id="137" depart="54.80">
        <route edges="B1B4 B4B1 B1B2"/>
    </vehicle>
    <vehicle id="138" depart="55.20">
        <route edges="B1B2 B2C2 C2C3"/>
    </vehicle>
    <vehicle id="139" depart="55.60">
        <route edges="B3B2 B2B3 B3C3 C3C2"/>
    </vehicle>
    <vehicle id="140" depart="56.00">
        <route edges="C4C3 C3B3 B3B2 B2B1"/>
    </vehicle>
    <vehicle id="141" depart="56.40">
        <route edges="C3C4 C4B4 B4B3 B3A1"/>
    </vehicle>
    <vehicle id="142" depart="56.80">
        <route edges="C1D1 D1C1 C1B1 B1A1 A1B3 B3C3 C3D3 D3D2"/>
    </vehicle>
    <vehicle id="143" depart="57.20">
        <route edges="D2D1 D1C1 C1B1 B1A1"/>
    </vehicle>
    <vehicle id="144" depart="57.60">
        <route edges="C1B1 B1A1 A1B3 B3B2"/>
    </vehicle>
    <vehicle id="145" depart="58.00">
        <route edges="A1B1 B1C1 C1D1 D1D2"/>
    </vehicle>
    <vehicle id="146" depart="58.40">
        <route edges="C3C4 C4B4 B4B3 B3A1"/>
    </vehicle>
    <vehicle id="147" depart="58.80">
        <route edges="C4D4 D4C4 C4B4 B4A1 A1B2 B2C2 C2C3"/>
    </vehicle>
    <vehicle id="148" depart="59.20">
        <route edges="C1B1 B1A1 A1B1"/>
    </vehicle>
    <vehicle id="149" depart="59.60">
        <route edges="A1B4 B4B3 B3C3 C3D3 D3C3"/>
    </vehicle>
    <vehicle id="150" depart="60.00">
        <route edges="D3D2 D2C2 C2C3"/>
    </vehicle>
    <vehicle id="151" depart="60.40">
        <route edges="D2D1 D1C1 C1C2 C2D2"/>
    </vehicle>
    <vehicle id="152" depart="60.80">
        <route edges="B1C1 C1B1 B1B4"/>
    </vehicle>
    <vehicle id="153" depart="61.20">
        <route edges="B3B4 B4B3 B3C3 C3D3 D3D2"/>
    </vehicle>
    <vehicle id="154" depart="61.60">
        <route edges="D1D4 D4C4 C4B4 B4A1 A1B2 B2C2 C2D2 D2D3"/>
    </vehicle>
    <vehicle id="155" depart="62.00">
        <route edges="D3D2 D2C2 C2B2 B2B3"/>
    </vehicle>
    <vehicle id="156" depart="62.40">
        <route edges="B2C2 C2C1 C1B1 B1A1"/>
    </vehicle>
    <vehicle id="157" depart="62.80">
        <route edges="D1D2 D2D3 D3C3"/>
    </vehicle>
    <vehicle id="158" depart="63.20">
        <route edges="B4C4 C4C3 C3C2"/>
    </vehicle>
    <vehicle id="159" depart="63.60">
        <route edges="B1C1 C1B1 B1A1 A1B3 B3C3 C3D3 D3D4"/>
    </vehicle>
    <vehicle id="160" depart="64.00">
        <route edges="D2D3 D3D4 D4D1"/>
    </vehicle>
    <vehicle id="161" depart="64.40">
        <route edges="D1D4 D4D3 D3C3"/>
    </vehicle>
    <vehicle id="162" depart="64.80">
        <route edges="A1B2 B2B1 B1B4 B4C4 C4D4"/>
    </vehicle>
    <vehicle id="163" depart="65.20">
        <route edges="B3C3 C3D3 D3D4"/>
    </vehicle>
    <vehicle id="164" depart="65.60">
        <route edges="D1D4 D4C4 C4B4 B4A1 A1B2 B2C2 C2D2 D2D3"/>
    </vehicle>
    <vehicle id="165" depart="66.00">
        <route edges="D1D4 D4C4 C4B4 B4B3 B3A1"/>
    </vehicle>
    <vehicle id="166" depart="66.40">
        <route edges="D1D2 D2C2 C2B2 B2B1 B1B2"/>
    </vehicle>
    <vehicle id="167" depart="66.80">
        <route edges="D2D3"/>
    </vehicle>
    <vehicle id="168" depart="67.20">
        <route edges="B2B3 B3B2 B2C2 C2D2 D2C2"/>
    </vehicle>
    <vehicle id="169" depart="67.60">
        <route edges="C1C4 C4B4 B4B3 B3B4"/>
    </vehicle>
    <vehicle id="170" depart="68.00">
        <route edges="D1D4 D4C4 C4B4 B4A1 A1B2 B2B3"/>
    </vehicle>
    <vehicle id="171" depart="68.40">
        <route edges="A1B2 B2B1"/>
    </vehicle>
    <vehicle id="172" depart="68.80">
        <route edges="B3C3 C3C2 C2D2 D2D3"/>
    </vehicle>
    <vehicle id="173" depart="69.20">
        <route edges="D4D1 D1C1 C1B1 B1A1 A1B3 B3B2"/>
    </vehicle>
    <vehicle id="174" depart="69.60">
        <route edges="C3C4 C4B4 B4C4"/>
    </vehicle>
    <vehicle id="175" depart="70.00">
        <route edges="D4D3 D3C3 C3C2 C2C1"/>
    </vehicle>
    <vehicle id="176" depart="70.40">
        <route edges="D4C4 C4B4 B4B1 B1B2"/>
    </vehicle>
    <vehicle id="177" depart="70.80">
        <route edges="D4D1 D1C1 C1B1 B1B2 B2A1"/>
    </vehicle>
    <vehicle id="178" depart="71.20">
        <route edges="D4D1 D1C1 C1B1 B1A1 A1B3 B3A1"/>
    </vehicle>
    <vehicle id="179" depart="71.60">
        <route edges="B1B2 B2C2 C2C1 C1B1"/>
    </vehicle>
    <vehicle id="180" depart="72.00">
        <route edges="C4C3 C3B3 B3C3"/>
    </vehicle>
    <vehicle id="181" depart="72.40">
        <route edges="C3C2 C2B2"/>
    </vehicle>
    <vehicle id="182" depart="72.80">
        <route edges="B4B3 B3B2 B2C2 C2D2"/>
    </vehicle>
    <vehicle id="183" depart="73.20">
        <route edges="B3A1 A1B4 B4C4 C4C3"/>
    </vehicle>
    <vehicle id="184" depart="73.60">
        <route edges="A1B1 B1B4 B4B3 B3C3 C3D3 D3D4"/>
    </vehicle>
    <vehicle id="185" depart="74.00">
        <route edges="C2C1 C1C4 C4C3"/>
    </vehicle>
    <vehicle id="186" depart="74.40">
        <route edges="C4D4 D4C4 C4B4"/>
    </vehicle>
    <vehicle id="187" depart="74.80">
        <route edges="B4B1 B1A1 A1B4"/>
    </vehicle>
    <vehicle id="188" depart="75.20">
        <route edges="C3D3 D3C3 C3B3 B3C3"/>
    </vehicle>
    <vehicle id="189" depart="75.60">
        <route edges="B3C3 C3C2 C2D2 D2D1"/>
    </vehicle>
    <vehicle id="190" depart="76.00">
        <route edges="C4C3 C3B3 B3B4"/>
    </vehicle>
    <vehicle id="191" depart="76.40">
        <route edges="B3B4 B4C4"/>
    </vehicle>
    <vehicle id="192" depart="76.80">
        <route edges="B4C4 C4C3 C3B3 B3B4"/>
    </vehicle>
    <vehicle id="193" depart="77.20">
        <route edges="B1B4 B4B1 B1C1 C1B1"/>
    </vehicle>
    <vehicle id="194" depart="77.60">
        <route edges="D4C4 C4B4"/>
    </vehicle>
    <vehicle id="195" depart="78.00">
        <route edges="D3D2 D2C2 C2C3 C3C2"/>
    </vehicle>
    <vehicle id="196" depart="78.40">
        <route edges="B3B4 B4A1 A1B2 B2C2 C2C3"/>
    </vehicle>
    <vehicle id="197" depart="78.80">
        <route edges="A1B1 B1B4 B4B3 B3B2"/>
    </vehicle>
    <vehicle id="198" depart="79.20">
        <route edges="C1B1 B1B2 B2C2 C2D2"/>
    </vehicle>
    <vehicle id="199" depart="79.60">
        <route edges="C3D3 D3C3 C3B3 B3A1 A1B1 B1C1 C1C4"/>
    </vehicle>
    <vehicle id="200" depart="80.00">
        <route edges="C1C2 C2B2 B2B3"/>
    </vehicle>
    <vehicle id="201" depart="80.40">
        <route edges="C1C4 C4C3 C3D3 D3D2"/>
    </vehicle>
    <vehicle id="202" depart="80.80">
        <route edges="D1D4 D4C4 C4B4 B4A1 A1B2 B2A1"/>
    </vehicle>
    <vehicle id="203" depart="81.20">
        <route edges="B1A1 A1B2 B2C2 C2B2"/>
    </vehicle>
    <vehicle id="204" depart="81.60">
        <route edges="C3C4 C4B4 B4A1"/>
    </vehicle>
    <vehicle id="205" depart="82.00">
        <route edges="D2C2 C2C1 C1D1 D1C1"/>
    </vehicle>
    <vehicle id="206" depart="82.40">
        <route edges="C4B4 B4A1 A1B2 B2B3"/>
    </vehicle>
    <vehicle id="207" depart="82.80">
        <route edges="B2B1 B1A1 A1B2"/>
    </vehicle>
    <vehicle id="208" depart="83.20">
        <route edges="B2C2 C2C1 C1C4"/>
    </vehicle>
    <vehicle id="209" depart="83.60">
        <route edges="D2D1 D1C1 C1B1 B1A1 A1B4"/>
    </vehicle>
    <vehicle id="210" depart="84.00">
        <route edges="B4C4 C4C3 C3C4"/>
    </vehicle>
    <vehicle id="211" depart="84.40">
        <route edges="B2B1 B1B4 B4C4 C4C1"/>
    </vehicle>
    <vehicle id="212" depart="84.80">
        <route edges="C1D1 D1C1 C1B1 B1B2 B2C2"/>
    </vehicle>
    <vehicle id="213" depart="85.20">
        <route edges="C3D3 D3C3 C3B3 B3A1 A1B1"/>
    </vehicle>
    <vehicle id="214" depart="85.60">
        <route edges="D1C1"/>
    </vehicle>
    <vehicle id="215" depart="86.00">
        <route edges="B1B2 B2C2 C2C1 C1B1"/>
    </vehicle>
    <vehicle id="216" depart="86.40">
        <route edges="B2A1 A1B4 B4C4 C4D4 D4C4"/>
    </vehicle>
    <vehicle id="217" depart="86.80">
        <route edges="C2B2 B2A1 A1B3"/>
    </vehicle>
    <vehicle id="218" depart="87.20">
        <route edges="B2C2 C2D2 D2D1"/>
    </vehicle>
    <vehicle id="219" depart="87.60">
        <route edges="C1C2 C2C1 C1D1 D1D4"/>
    </vehicle>
    <vehicle id="220" depart="88.00">
        <route edges="C4B4 B4C4 C4D4 D4D3"/>
    </vehicle>
    <vehicle id="221" depart="88.40">
        <route edges="C3B3 B3B4 B4C4 C4D4 D4C4"/>
    </vehicle>
    <vehicle id="222" depart="88.80">
        <route edges="D3C3 C3C2"/>
    </vehicle>
    <vehicle id="223" depart="89.20">
        <route edges="C4C3 C3C2 C2B2"/>
    </vehicle>
    <vehicle id="224" depart="89.60">
        <route edges="D2C2 C2C3"/>
    </vehicle>
    <vehicle id="225" depart="90.00">
        <route edges="D3D2 D2C2 C2B2 B2A1 A1B4 B4C4 C4D4"/>
    </vehicle>
    <vehicle id="226" depart="90.40">
        <route edges="C1C4 C4B4 B4B3 B3A1"/>
    </vehicle>
    <vehicle id="227" depart="90.80">
        <route edges="B2C2 C2C3 C3C4"/>
    </vehicle>
    <vehicle id="228" depart="91.20">
        <route edges="D1C1 C1C2 C2C1"/>
    </vehicle>
    <vehicle id="229" depart="91.60">
        <route edges="C3C4 C4B4 B4B3 B3B2"/>
    </vehicle>
    <vehicle id="230" depart="92.00">
        <route edges="A1B4 B4B3 B3B2"/>
    </vehicle>
    <vehicle id="231" depart="92.40">
        <route edges="B3B2 B2B3 B3C3"/>
    </vehicle>
    <vehicle id="232" depart="92.80">
        <route edges="C2C1 C1B1 B1B4"/>
    </vehicle>
    <vehicle id="233" depart="93.20">
        <route edges="B2C2 C2B2 B2A1 A1B4 B4C4 C4C1"/>
    </vehicle>
    <vehicle id="234" depart="93.60">
        <route edges="C4C1 C1B1 B1A1 A1B4"/>
    </vehicle>
    <vehicle id="235" depart="94.00">
        <route edges="B4C4 C4B4 B4A1 A1B2 B2C2 C2C3"/>
    </vehicle>
    <vehicle id="236" depart="94.40">
        <route edges="B4C4 C4B4 B4A1 A1B2 B2B1"/>
    </vehicle>
    <vehicle id="237" depart="94.80">
        <route edges="C1B1 B1A1 A1B3 B3C3 C3D3 D3D2"/>
    </vehicle>
    <vehicle id="238" depart="95.20">
        <route edges="C3B3 B3B4 B4C4 C4C1"/>
    </vehicle>
    <vehicle id="239" depart="95.60">
        <route edges="D2D3 D3C3 C3B3 B3A1 A1B1 B1C1 C1D1 D1C1"/>
    </vehicle>
    <vehicle id="240" depart="96.00">
        <route edges="B4B3 B3A1 A1B1"/>
    </vehicle>
    <vehicle id="241" depart="96.40">
        <route edges="B4A1 A1B1 B1C1 C1D1 D1C1"/>
    </vehicle>
    <vehicle id="242" depart="96.80">
        <route edges="D2D1 D1D4 D4C4"/>
    </vehicle>
    <vehicle id="243" depart="97.20">
        <route edges="C1B1 B1B4 B4C4 C4D4"/>
    </vehicle>
    <vehicle id="244" depart="97.60">
        <route edges="C2C3 C3B3"/>
    </vehicle>
    <vehicle id="245" depart="98.00">
        <route edges="B2B3"/>
    </vehicle>
    <vehicle id="246" depart="98.40">
        <route edges="C1B1 B1A1 A1B2"/>
    </vehicle>
    <vehicle id="247" depart="98.80">
        <route edges="B4A1 A1B4 B4C4 C4B4"/>
    </vehicle>
    <vehicle id="248" depart="99.20">
        <route edges="B4C4 C4B4 B4B1 B1C1"/>
    </vehicle>
    <vehicle id="249" depart="99.60">
        <route edges="C1C4 C4B4 B4B1 B1B4"/>
    </vehicle>
    <vehicle id="250" depart="100.00">
        <route edges="C3C2 C2B2 B2A1 A1B2"/>
    </vehicle>
    <vehicle id="251" depart="100.40">
        <route edges="B4B3 B3B2 B2C2 C2D2"/>
    </vehicle>
    <vehicle id="252" depart="100.80">
        <route edges="A1B2 B2B3 B3C3 C3C4"/>
    </vehicle>
    <vehicle id="253" depart="101.20">
        <route edges="B1B4 B4B1 B1C1 C1C4"/>
    </vehicle>
    <vehicle id="254" depart="101.60">
        <route edges="A1B3 B3B4 B4B3"/>
    </vehicle>
    <vehicle id="255" depart="102.00">
        <route edges="B2B3 B3C3"/>
    </vehicle>
    <vehicle id="256" depart="102.40">
        <route edges="D1C1 C1B1 B1B4 B4B3"/>
    </vehicle>
    <vehicle id="257" depart="102.80">
        <route edges="D1C1 C1C2 C2D2 D2C2"/>
    </vehicle>
    <vehicle id="258" depart="103.20">
        <route edges="B3A1 A1B4"/>
    </vehicle>
    <vehicle id="259" depart="103.60">
        <route edges="A1B1 B1B2 B2C2 C2C1"/>
    </vehicle>
    <vehicle id="260" depart="104.00">
        <route edges="D4D3 D3C3 C3B3 B3B4 B4A1"/>
    </vehicle>
    <vehicle id="261" depart="104.40">
        <route edges="C3D3 D3C3 C3B3 B3A1 A1B1 B1C1 C1D1 D1D2"/>
    </vehicle>
    <vehicle id="262" depart="104.80">
        <route edges="C3D3 D3C3 C3B3 B3A1 A1B1 B1C1 C1D1 D1C1"/>
    </vehicle>
    <vehicle id="263" depart="105.20">
        <route edges="D4C4 C4B4 B4A1 A1B2 B2B1"/>
    </vehicle>
    <vehicle id="264" depart="105.60">
        <route edges="A1B1 B1C1"/>
    </vehicle>
    <vehicle id="265" depart="106.00">
        <route edges="B1B4 B4C4 C4B4"/>
    </vehicle>
    <vehicle id="266" depart="106.40">
        <route edges="C2D2 D2C2 C2B2 B2B3"/>
    </vehicle>
    <vehicle id="267" depart="106.80">
        <route edges="C4C1 C1D1 D1C1"/>
    </vehicle>
    <vehicle id="268" depart="107.20">
        <route edges="B2A1 A1B3 B3C3 C3C2"/>
    </vehicle>
    <vehicle id="269" depart="107.60">
        <route edges="C4D4 D4C4 C4B4 B4B1 B1B2"/>
    </vehicle>
    <vehicle id="270" depart="108.00">
        <route edges="D2C2 C2B2 B2A1 A1B4 B4C4 C4D4 D4D1"/>
    </vehicle>
    <vehicle id="271" depart="108.40">
        <route edges="B1B2 B2A1 A1B2"/>
    </vehicle>
    <vehicle id="272" depart="108.80">
        <route edges="B3B4 B4C4 C4B4"/>
    </vehicle>
    <vehicle id="273" depart="109.20">
        <route edges="D4C4 C4B4 B4C4"/>
    </vehicle>
    <vehicle id="274" depart="109.60">
        <route edges="C4C3 C3B3 B3A1 A1B4"/>
    </vehicle>
    <vehicle id="275" depart="110.00">
        <route edges="C4C1 C1B1 B1A1 A1B3 B3C3 C3C4"/>
    </vehicle>
    <vehicle id="276" depart="110.40">
        <route edges="B1A1 A1B1 B1C1 C1D1 D1D2"/>
    </vehicle>
    <vehicle id="277" depart="110.80">
        <route edges="D2D1 D1C1 C1B1 B1A1 A1B3 B3C3 C3B3"/>
    </vehicle>
    <vehicle id="278" depart="111.20">
        <route edges="B1B2 B2A1 A1B4 B4C4 C4D4 D4D3"/>
    </vehicle>
    <vehicle id="279" depart="111.60">
        <route edges="D1D2 D2C2 C2B2 B2A1 A1B4 B4A1"/>
    </vehicle>
    <vehicle id="280" depart="112.00">
        <route edges="C1B1 B1B4 B4B1"/>
    </vehicle>
    <vehicle id="281" depart="112.40">
        <route edges="C2B2 B2A1 A1B4 B4A1"/>
    </vehicle>
    <vehicle id="282" depart="112.80">
        <route edges="D2D1 D1C1 C1C2 C2D2 D2C2"/>
    </vehicle>
    <vehicle id="283" depart="113.20">
        <route edges="B1B2 B2A1 A1B4 B4C4 C4D4 D4D1"/>
    </vehicle>
    <vehicle id="284" depart="113.60">
        <route edges="C3C4 C4B4 B4A1 A1B2 B2C2 C2D2 D2C2"/>
    </vehicle>
    <vehicle id="285" depart="114.00">
        <route edges="C4C1 C1B1"/>
    </vehicle>
    <vehicle id="286" depart="114.40">
        <route edges="C4D4 D4D1"/>
    </vehicle>