<?xml version="1.0" encoding="UTF-8"?>

<!-- generated on 2026-04-16 17:52:37.068630 by Eclipse SUMO randomTrips.py v1_26_0+0000-fa7df22d7f1
<configuration>
    <net-file value="D:\research project\NeurIPS\logic building\Meta-MOHRL- Antigravity code building\sumo_configs\15_topologies\topo_09_heterogeneous_mesh_B.net.xml"/>
    <output-trip-file value="D:\research project\NeurIPS\logic building\Meta-MOHRL- Antigravity code building\sumo_configs\15_topologies\topo_09_heterogeneous_mesh_B_trips.xml"/>
    <route-file value="D:\research project\NeurIPS\logic building\Meta-MOHRL- Antigravity code building\sumo_configs\15_topologies\topo_09_heterogeneous_mesh_B.rou.xml"/>
    <end value="1000.0"/>
    <period value="0.6"/>
</configuration>
-->

<!-- generated on 2026-04-16T17:52:36.900452-08:00 by Eclipse SUMO duarouter 1.26.0
<duarouterConfiguration xmlns:xsi="http://www.w3.org/2001/XMLSchema-instance" xsi:noNamespaceSchemaLocation="http://sumo.dlr.de/xsd/duarouterConfiguration.xsd">

    <input>
        <net-file value="D:\research project\NeurIPS\logic building\Meta-MOHRL- Antigravity code building\sumo_configs\15_topologies\topo_09_heterogeneous_mesh_B.net.xml"/>
        <route-files value="D:\research project\NeurIPS\logic building\Meta-MOHRL- Antigravity code building\sumo_configs\15_topologies\topo_09_heterogeneous_mesh_B_trips.xml"/>
    </input>

    <output>
        <output-file value="D:\research project\NeurIPS\logic building\Meta-MOHRL- Antigravity code building\sumo_configs\15_topologies\topo_09_heterogeneous_mesh_B.rou.xml"/>
        <alternatives-output value="NUL"/>
    </output>

    <time>
        <begin value="0.0"/>
        <end value="1000.0"/>
    </time>

    <report>
        <no-warnings value="true"/>
        <ignore-errors value="true"/>
        <no-step-log value="true"/>
    </report>

</duarouterConfiguration>
-->

<routes xmlns:xsi="http://www.w3.org/2001/XMLSchema-instance" xsi:noNamespaceSchemaLocation="http://sumo.dlr.de/xsd/routes_file.xsd">
    <vehicle id="0" depart="0.00">
        <route edges="15 -15 -3 7 221 242 499 617 -1455 -1122"/>
    </vehicle>
    <vehicle id="1" depart="0.60">
        <route edges="-1966 -1671 -1452 1450 -758 752 -477 -427 -236 -215 -202"/>
    </vehicle>
    <vehicle id="2" depart="1.20">
        <route edges="1833 1840 -1804 -1567 178"/>
    </vehicle>
    <vehicle id="3" depart="1.80">
        <route edges="52 -52 84 -110 221 242 497 611 781 -1454"/>
    </vehicle>
    <vehicle id="4" depart="2.40">
        <route edges="-52 84 -110 221 242 497 611 871 -1225"/>
    </vehicle>
    <vehicle id="5" depart="3.00">
        <route edges="-1805 1805 -166 -37 33 -52 84 -110 221 242 497 611 783 1226"/>
    </vehicle>
    <vehicle id="6" depart="3.60">
        <route edges="-1122 -551 -497 -242 -221 110 -84 52 -33 37 166 -1805 1811 -1830"/>
    </vehicle>
    <vehicle id="7" depart="4.20">
        <route edges="1585 -1440 -987 -529 530 -487 495 541 997 1443"/>
    </vehicle>
    <vehicle id="8" depart="4.80">
        <route edges="-1805 1805 -166 126 178 -13 15 1442 -1415 1401 1589"/>
    </vehicle>
    <vehicle id="9" depart="5.40">
        <route edges="319 458 530 -487 495 545 758 -1450 -1005"/>
    </vehicle>
    <vehicle id="10" depart="6.00">
        <route edges="3 13 -178 -126 166 451 524 1824"/>
    </vehicle>
    <vehicle id="11" depart="6.60">
        <route edges="-319 -231 -11 9 25 54 -169"/>
    </vehicle>
    <vehicle id="12" depart="7.20">
        <route edges="756 -756 -545 -495"/>
    </vehicle>
    <vehicle id="13" depart="7.80">
        <route edges="-1455 1457 1689 -1461 -1458"/>
    </vehicle>
    <vehicle id="14" depart="8.40">
        <route edges="475 -423 431 487 -530 529 987 1418 1607"/>
    </vehicle>
    <vehicle id="15" depart="9.00">
        <route edges="3 13 -17 19"/>
    </vehicle>
    <vehicle id="16" depart="9.60">
        <route edges="1002 -756 752 -477 475 -240 -221 110 -84 84"/>
    </vehicle>
    <vehicle id="17" depart="10.20">
        <route edges="-475 477 -752 758 -1450 1452"/>
    </vehicle>
    <vehicle id="18" depart="10.80">
        <route edges="431 -431 -236 -227 -11 9 19 37 166"/>
    </vehicle>
    <vehicle id="19" depart="11.40">
        <route edges="487 -530 -458 -319 -233 -15 13 -178 1567"/>
    </vehicle>
    <vehicle id="20" depart="12.00">
        <route edges="17 -13 -3 7 221 242 497 611 783 1286 -1286"/>
    </vehicle>
    <vehicle id="21" depart="12.60">
        <route edges="-1814 -524 -451 -166 -37 33 -52 84 -110 221 240 -423"/>
    </vehicle>
    <vehicle id="22" depart="13.20">
        <route edges="-1443 -997 -477 475 -240 -221"/>
    </vehicle>
    <vehicle id="23" depart="13.80">
        <route edges="-1458 -1228 -783 -611 -497 -242 240 -423 431 487 -530 -458 -319"/>
    </vehicle>
    <vehicle id="24" depart="14.40">
        <route edges="1461 -1689 1692 -617 -535 -479 -427 431 487 -530 529 -529"/>
    </vehicle>
    <vehicle id="25" depart="15.00">
        <route edges="-458 -319 -233 -15 13 1654 -1840"/>
    </vehicle>
    <vehicle id="26" depart="15.60">
        <route edges="-1959 -1663 -539 -483 -431 423 -240 242 499 617"/>
    </vehicle>
    <vehicle id="27" depart="16.20">
        <route edges="1585 -1440 1418 1633"/>
    </vehicle>
    <vehicle id="28" depart="16.80">
        <route edges="-1687 -1452 1450 -758 752 -477 -427 -236 -227 -11 9 19"/>
    </vehicle>
    <vehicle id="29" depart="17.40">
        <route edges="-1671 1687 -1964 -751 743 -1959 -1663 -539"/>
    </vehicle>
    <vehicle id="30" depart="18.00">
        <route edges="985 1415 -1442 -15 -3 7 221 242 499 617 -1692 1689"/>
    </vehicle>
    <vehicle id="31" depart="18.60">
        <route edges="1122 1455 -617 -499 -242 -221 110 -84 52 -33 37 166 -1805 1805"/>
    </vehicle>
    <vehicle id="32" depart="19.20">
        <route edges="472 -472 -319 -231 227 236"/>
    </vehicle>
    <vehicle id="33" depart="19.80">
        <route edges="-1824 -524 -451 -166 -37 33 -52 84 -110 221 242 497 611 871 -1225"/>
    </vehicle>
    <vehicle id="34" depart="20.40">
        <route edges="-240 -221 110 -84 52 -33 37 166 -1805 1811 -1830 -251"/>
    </vehicle>
    <vehicle id="35" depart="21.00">
        <route edges="-178 178 -13 -3 11 227 236 431 495 543 743"/>
    </vehicle>
    <vehicle id="36" depart="21.60">
        <route edges="499 -499 -242 240 -475"/>
    </vehicle>
    <vehicle id="37" depart="22.20">
        <route edges="1599 -1599 -1415 -985 -529 530 -487 495 545 -545"/>
    </vehicle>
    <vehicle id="38" depart="22.80">
        <route edges="539 1663 1959 -743 -543 -495 487 -530 -458 -455 984 -985"/>
    </vehicle>
    <vehicle id="39" depart="23.40">
        <route edges="-1959 -1663 -539 537 -530 -458 -319 -233"/>
    </vehicle>
    <vehicle id="40" depart="24.00">
        <route edges="114 -502 -451 -166 -37 33 -52 -25"/>
    </vehicle>
    <vehicle id="41" depart="24.60">
        <route edges="1401 -1416 -987 -529 530"/>
    </vehicle>
    <vehicle id="42" depart="25.20">
        <route edges="-495 495 545 758 -1450 1452 1687 -1964"/>
    </vehicle>
    <vehicle id="43" depart="25.80">
        <route edges="997 1443 535 -499 497 611 783 1228"/>
    </vehicle>
    <vehicle id="44" depart="26.40">
        <route edges="-1454 1457 1689 -1461 -1286"/>
    </vehicle>
    <vehicle id="45" depart="27.00">
        <route edges="-15 13 -178 -126 -37 49 167"/>
    </vehicle>
    <vehicle id="46" depart="27.60">
        <route edges="242 -242 240 -475 477 -752"/>
    </vehicle>
    <vehicle id="47" depart="28.20">
        <route edges="-1416 -987 -529 530 -487 495 543 743 -1959 -1663 -539"/>
    </vehicle>
    <vehicle id="48" depart="28.80">
        <route edges="987 1416 -1401 1415"/>
    </vehicle>
    <vehicle id="49" depart="29.40">
        <route edges="783 -783 -611 -497 -242 -221 110 -84 52 -33 49"/>
    </vehicle>
    <vehicle id="50" depart="30.00">
        <route edges="-11 3 15 1442 1599 1846"/>
    </vehicle>
    <vehicle id="51" depart="30.60">
        <route edges="1687 -1964 -751 -543 -495 487 -530 529 987 1440"/>
    </vehicle>
    <vehicle id="52" depart="31.20">
        <route edges="-1959 -1663 -539 -483 -431 423 -240 242 499 617 -1692 1689"/>
    </vehicle>
    <vehicle id="53" depart="31.80">
        <route edges="-1567 178 -13 -3 7 221 242 497 551 1122 1454 -781"/>
    </vehicle>
    <vehicle id="54" depart="32.40">
        <route edges="-543 545 756"/>
    </vehicle>
    <vehicle id="55" depart="33.00">
        <route edges="499 -499 -242 -221 110 -84 -25"/>
    </vehicle>
    <vehicle id="56" depart="33.60">
        <route edges="-783 -611 -497 -242 -221 110 -84 106 -171"/>
    </vehicle>
    <vehicle id="57" depart="34.20">
        <route edges="539 1663 1959 -743 -543 541 -477 475 -240 242 497"/>
    </vehicle>
    <vehicle id="58" depart="34.80">
        <route edges="-227 227 236 427 477 -752 758 -1450 1452 1687"/>
    </vehicle>
    <vehicle id="59" depart="35.40">
        <route edges="1443 535 617 -1692 1689 -1689"/>
    </vehicle>
    <vehicle id="60" depart="36.00">
        <route edges="215 -227 231 319 472 987 1440"/>
    </vehicle>
    <vehicle id="61" depart="36.60">
        <route edges="231 319 472 987 1416"/>
    </vehicle>
    <vehicle id="62" depart="37.20">
        <route edges="-1002 -751 -543 -495 483 -483"/>
    </vehicle>
    <vehicle id="63" depart="37.80">
        <route edges="-1108 -776 752 -477 475 -240 242 497 551"/>
    </vehicle>
    <vehicle id="64" depart="38.40">
        <route edges="502 -114 126 178 -13 15 233 259 455"/>
    </vehicle>
    <vehicle id="65" depart="39.00">
        <route edges="-233 1442 -1415"/>
    </vehicle>
    <vehicle id="66" depart="39.60">
        <route edges="499 -535 -479 477 -541 543 751"/>
    </vehicle>
    <vehicle id="67" depart="40.20">
        <route edges="-1452 1450 -1108 1108"/>
    </vehicle>
    <vehicle id="68" depart="40.80">
        <route edges="-1418 -987 -472 -319 -231 -11 7 221"/>
    </vehicle>
    <vehicle id="69" depart="41.40">
        <route edges="221 -221 -7 3 13 1654 -1654"/>
    </vehicle>
    <vehicle id="70" depart="42.00">
        <route edges="-743 751 1002 1005 1450"/>
    </vehicle>
    <vehicle id="71" depart="42.60">
        <route edges="-1959 -1663 -539 -483 -431 423 -240 242 499"/>
    </vehicle>
    <vehicle id="72" depart="43.20">
        <route edges="-524 -451 -166 -37 -19"/>
    </vehicle>
    <vehicle id="73" depart="43.80">
        <route edges="1005 1450 -758 752 -477 -427 -236 -227 -11 9 19"/>
    </vehicle>
    <vehicle id="74" depart="44.40">
        <route edges="-170 -51 -25 17 -13 15 1442 -1415 -985 -472"/>
    </vehicle>
    <vehicle id="75" depart="45.00">
        <route edges="987 -987 -529 530 -487 -431 423 -240 242 499 617 -1692 1691"/>
    </vehicle>
    <vehicle id="76" depart="45.60">
        <route edges="-537 -483 -431 423 -240 242 497 611 783 1286"/>
    </vehicle>
    <vehicle id="77" depart="46.20">
        <route edges="-1585 -1401 -984 -259 -231 208 -208"/>
    </vehicle>
    <vehicle id="78" depart="46.80">
        <route edges="-3 11 231 259 984 1401 1589"/>
    </vehicle>
    <vehicle id="79" depart="47.40">
        <route edges="-1824 -524 -451 -166 -37 33 -52 84 -110 221 240 -475 477 -752 758 -1450 1452 1687 -1964"/>
    </vehicle>
    <vehicle id="80" depart="48.00">
        <route edges="-1440 -987 -529 530 -487 495 543 751 1964 -1687 1671"/>
    </vehicle>
    <vehicle id="81" depart="48.60">
        <route edges="-1824 -524 -451 -166 -37 -19 -9 11 227 236 431 483 537"/>
    </vehicle>
    <vehicle id="82" depart="49.20">
        <route edges="483 537 -530 529 985 1415 -1442"/>
    </vehicle>
    <vehicle id="83" depart="49.80">
        <route edges="-1830 -251 -226 167 -171 -169 170"/>
    </vehicle>
    <vehicle id="84" depart="50.40">
        <route edges="-1804 -1655"/>
    </vehicle>
    <vehicle id="85" depart="51.00">
        <route edges="611 783 1286 1461"/>
    </vehicle>
    <vehicle id="86" depart="51.60">
        <route edges="-7 7 221 242"/>
    </vehicle>
    <vehicle id="87" depart="52.20">
        <route edges="3 13 1654 -1804"/>
    </vehicle>
    <vehicle id="88" depart="52.80">
        <route edges="-1457 1455 -617 -535 -479 477 -752 776 -776"/>
    </vehicle>
    <vehicle id="89" depart="53.40">
        <route edges="-524 -451 -166 -37 -19 -9 11 227 236 431 495 543 751 1002"/>
    </vehicle>
    <vehicle id="90" depart="54.00">
        <route edges="1811 -1830 -251 -226 167 172"/>
    </vehicle>
    <vehicle id="91" depart="54.60">
        <route edges="9 -9 7 221 242 497 611 783 1286 -1458"/>
    </vehicle>
    <vehicle id="92" depart="55.20">
        <route edges="-497"/>
    </vehicle>
    <vehicle id="93" depart="55.80">
        <route edges="487 -530 -458 -319 -233"/>
    </vehicle>
    <vehicle id="94" depart="56.40">
        <route edges="-1698 -1228 -783 -611 -497 -242 -221 -7 9 -9"/>
    </vehicle>
    <vehicle id="95" depart="57.00">
        <route edges="-52 -25 -9 11 231 319 -319"/>
    </vehicle>
    <vehicle id="96" depart="57.60">
        <route edges="-1839 -1595 -1415 -985 -529 530 -487 495 545"/>
    </vehicle>
    <vehicle id="97" depart="58.20">
        <route edges="-539 -483 -431 -236 -227 -11 9 19 49"/>
    </vehicle>
    <vehicle id="98" depart="58.80">
        <route edges="110 -84 -25 17 -13"/>
    </vehicle>
    <vehicle id="99" depart="59.40">
        <route edges="997 -997 -541 -495 487 -530 -458 458"/>
    </vehicle>
    <vehicle id="100" depart="60.00">
        <route edges="781 -1454 1455 -617 -535 -479 477 -541 545"/>
    </vehicle>
    <vehicle id="101" depart="60.60">
        <route edges="475 -240 242 499 617 -1692 1691 -1699"/>
    </vehicle>
    <vehicle id="102" depart="61.20">
        <route edges="-756 -545 543 743 -1959"/>
    </vehicle>
    <vehicle id="103" depart="61.80">
        <route edges="-497 -242 -221 -7 3 15 1442 -1415"/>
    </vehicle>
    <vehicle id="104" depart="62.40">
        <route edges="-477 -427 -236 -227 231 259 984"/>
    </vehicle>
    <vehicle id="105" depart="63.00">
        <route edges="-1959 -1663 -539 -483 -431 423 -240 242"/>
    </vehicle>
    <vehicle id="106" depart="63.60">
        <route edges="-543 543 751 1002 -756"/>
    </vehicle>
    <vehicle id="107" depart="64.20">
        <route edges="756 -756 -545 -495 487 -530 529 987"/>
    </vehicle>
    <vehicle id="108" depart="64.80">
        <route edges="1122 1455 -617 -499 -242 -221 -7 3 15 1442 1599 1840"/>
    </vehicle>
    <vehicle id="109" depart="65.40">
        <route edges="-1663 -539 -483 -431"/>
    </vehicle>
    <vehicle id="110" depart="66.00">
        <route edges="781 -1454 -1122 -551 -497 -242 -221 -7 3 13 -178 1567"/>
    </vehicle>
    <vehicle id="111" depart="66.60">
        <route edges="106 -106 84 -110 202"/>
    </vehicle>
    <vehicle id="112" depart="67.20">
        <route edges="-1401 1415 -1442 -15 13 -178 -126 166 451 508 1579"/>
    </vehicle>
    <vehicle id="113" depart="67.80">
        <route edges="-783 -611 -497 -242 240 -475 479"/>
    </vehicle>
    <vehicle id="114" depart="68.40">
        <route edges="-1663 -539 -483 495 545 776"/>
    </vehicle>
    <vehicle id="115" depart="69.00">
        <route edges="-1443 -997 -477 475 -240 -221 -7 3 13 -178"/>
    </vehicle>
    <vehicle id="116" depart="69.60">
        <route edges="1416 -1401 1415 -1442 -15 13 -17 25 106 172"/>
    </vehicle>
    <vehicle id="117" depart="70.20">
        <route edges="-1828 -524 -451 -166 126 1567 1804 -1840 -1833 -1595"/>
    </vehicle>
    <vehicle id="118" depart="70.80">
        <route edges="52 -33 37 126 178 -13 15 233 -231"/>
    </vehicle>
    <vehicle id="119" depart="71.40">
        <route edges="1416 -1401 1415 -1442 -15 13 -178 -126 166"/>
    </vehicle>
    <vehicle id="120" depart="72.00">
        <route edges="-52 52 -33 37 166 451 508 1579"/>
    </vehicle>
    <vehicle id="121" depart="72.60">
        <route edges="-985 -529 530 -487 -431 423 -240 242 499 617"/>
    </vehicle>
    <vehicle id="122" depart="73.20">
        <route edges="-171 -54 -25 17 1654 -1840 -1833 1839"/>
    </vehicle>
    <vehicle id="123" depart="73.80">
        <route edges="-1830 -251 -226 167 -106 84 -110 221 240 -475 477 -752 -545"/>
    </vehicle>
    <vehicle id="124" depart="74.40">
        <route edges="1663 1959 -743 -543 -495 -431 -236 -227 -11 9 19 37 166 451 -451"/>
    </vehicle>
    <vehicle id="125" depart="75.00">
        <route edges="-242 -221 -7 11 208"/>
    </vehicle>
    <vehicle id="126" depart="75.60">
        <route edges="-1440 1416 -1401 -985"/>
    </vehicle>
    <vehicle id="127" depart="76.20">
        <route edges="997 -997 -541 -495 487 -530 529 987"/>
    </vehicle>
    <vehicle id="128" depart="76.80">
        <route edges="-1440 -987 -472 -319 -231 -11 9 19 -19"/>
    </vehicle>
    <vehicle id="129" depart="77.40">
        <route edges="-1959 -1663 -539 -483 -431 423 -240 242 497 611"/>
    </vehicle>
    <vehicle id="130" depart="78.00">
        <route edges="502 -114 166 451 508"/>
    </vehicle>
    <vehicle id="131" depart="78.60">
        <route edges="-458 -319 -231 -11 9 25 54 -169"/>
    </vehicle>
    <vehicle id="132" depart="79.20">
        <route edges="451 -451 -166 -37 49 226 251 1830"/>
    </vehicle>
    <vehicle id="133" depart="79.80">
        <route edges="1450 -758 -545 -495 487 -530 -458 -455 984"/>
    </vehicle>
    <vehicle id="134" depart="80.40">
        <route edges="1595 1833 1840 -1804 -1567 -126 -37 33 -172 -106"/>
    </vehicle>
    <vehicle id="135" depart="81.00">
        <route edges="37 166 451 -451"/>
    </vehicle>
    <vehicle id="136" depart="81.60">
        <route edges="1655 -1655 -13 -3 7"/>
    </vehicle>
    <vehicle id="137" depart="82.20">
        <route edges="-1601 -1418 1440 -1585"/>
    </vehicle>
    <vehicle id="138" depart="82.80">
        <route edges="-15 -3 7 221 240 -475 477 -752 758 -1450 1452"/>
    </vehicle>
    <vehicle id="139" depart="83.40">
        <route edges="-1966 -1671 1687 -1964 -751 -543 -495 487 -530 529 987 1418 1607"/>
    </vehicle>
    <vehicle id="140" depart="84.00">
        <route edges="178 1654 -1840 -1833"/>
    </vehicle>
    <vehicle id="141" depart="84.60">
        <route edges="1461 -1689 1692 -617 -499 -242 -221 110 -84 -25"/>
    </vehicle>
    <vehicle id="142" depart="85.20">
        <route edges="-756 -545 -495 483 537"/>
    </vehicle>
    <vehicle id="143" depart="85.80">
        <route edges="475 -240 242 499 617 -1692 -1457"/>
    </vehicle>
    <vehicle id="144" depart="86.40">
        <route edges="-524 -451 -166 126 178 -13 15 233 319 -319"/>
    </vehicle>
    <vehicle id="145" depart="87.00">
        <route edges="-1002 -751 -543 -495 -431 -236 -227 231"/>
    </vehicle>
    <vehicle id="146" depart="87.60">
        <route edges="15 -15 13 -17 25 -25"/>
    </vehicle>
    <vehicle id="147" depart="88.20">
        <route edges="1840 -1654 -13 -3 7 221 240 -475 477 -752 758 -1450 1452"/>
    </vehicle>
    <vehicle id="148" depart="88.80">
        <route edges="-529 -458 -319 -231 -11 9 25 106 -106"/>
    </vehicle>
    <vehicle id="149" depart="89.40">
        <route edges="-1442 -15 13 -17 25 51"/>
    </vehicle>
    <vehicle id="150" depart="90.00">
        <route edges="530 -487 495 541 997 1443"/>
    </vehicle>
    <vehicle id="151" depart="90.60">
        <route edges="455 -319 -233 -15 13 -178 -126 166 451 508 1579"/>
    </vehicle>
    <vehicle id="152" depart="91.20">
        <route edges="-1655 1654 -1654"/>
    </vehicle>
    <vehicle id="153" depart="91.80">
        <route edges="-233 233 319 458 530"/>
    </vehicle>
    <vehicle id="154" depart="92.40">
        <route edges="25 52 -33 49"/>
    </vehicle>
    <vehicle id="155" depart="93.00">
        <route edges="529 -472 -319 -231 -11 9 19 -19"/>
    </vehicle>
    <vehicle id="156" depart="93.60">
        <route edges="-1839 -1595 -1442 -15 -3 7 221 242 499 617 -1692 1689 -1461"/>
    </vehicle>
    <vehicle id="157" depart="94.20">
        <route edges="233 -231 -11 9 25 51"/>
    </vehicle>
    <vehicle id="158" depart="94.80">
        <route edges="-499 -242 -221 110 -84 52 -33 37 166"/>
    </vehicle>
    <vehicle id="159" depart="95.40">
        <route edges="-1663 -539 -483 -431 423 -240 242 497 551"/>
    </vehicle>
    <vehicle id="160" depart="96.00">
        <route edges="49 167 -106 84 -110 221 242 497 611 845"/>
    </vehicle>
    <vehicle id="161" depart="96.60">
        <route edges="319 -319 -233 -15 13 -178 -126 166 451 508"/>
    </vehicle>
    <vehicle id="162" depart="97.20">
        <route edges="-1118 -776 756 -1002 1964"/>
    </vehicle>
    <vehicle id="163" depart="97.80">
        <route edges="-259 -231 -11 7 221 242 497 611"/>
    </vehicle>
    <vehicle id="164" depart="98.40">
        <route edges="259 455 458 530 -487 495"/>
    </vehicle>
    <vehicle id="165" depart="99.00">
        <route edges="319 -319 -233 -15 13 -178 -126 166 -1805 1811 -1830 -251"/>
    </vehicle>
    <vehicle id="166" depart="99.60">
        <route edges="240 -240 -221 -7 3 13 1655 -1567"/>
    </vehicle>
    <vehicle id="167" depart="100.20">
        <route edges="497 -497 -242 240 -423 431 487"/>
    </vehicle>
    <vehicle id="168" depart="100.80">
        <route edges="-1811 1805 -166 -37 -19 -9 11 227 236 423"/>
    </vehicle>
    <vehicle id="169" depart="101.40">
        <route edges="-551 -497 -242 240 -423 431 487 -530 -458"/>
    </vehicle>
    <vehicle id="170" depart="102.00">
        <route edges="25 84 -110 202 -208"/>
    </vehicle>
    <vehicle id="171" depart="102.60">
        <route edges="-1118 -776 752 -477 475 -240 -221 110 -84 52 -33 37 166 -1805"/>
    </vehicle>
    <vehicle id="172" depart="103.20">
        <route edges="-251 -226 167 -106 84 -110 221 240 -423 431 495"/>
    </vehicle>
    <vehicle id="173" depart="103.80">
        <route edges="776 -776 -545 -495 487 -530 -458 -319"/>
    </vehicle>
    <vehicle id="174" depart="104.40">
        <route edges="1567 -1655 -13 -3 7 221 242 499 617 -1455 -1122 -551"/>
    </vehicle>
    <vehicle id="175" depart="105.00">
        <route edges="871 -1225 -783 -611 -497 -242 240 -423 431 487 -530 529 987 1418"/>
    </vehicle>
    <vehicle id="176" depart="105.60">
        <route edges="617 -617 -535 -479 -427 431 487 -530 529 987 1440 -1585"/>
    </vehicle>
    <vehicle id="177" depart="106.20">
        <route edges="781 -1454 -1122 -551 -497 -242 -221 110 -84 106 -171"/>
    </vehicle>
    <vehicle id="178" depart="106.80">
        <route edges="758 -758 752 -477 475 -240 -221 110 -84 52 -33 37 166 -1805 1811 -1830 -251"/>
    </vehicle>
    <vehicle id="179" depart="107.40">
        <route edges="-15 -3 7 221 242 497 551 1122 1454 -781"/>
    </vehicle>
    <vehicle id="180" depart="108.00">
        <route edges="1811 -1830 -251 -226 167 -106 84 -110 221 240 -475"/>
    </vehicle>
    <vehicle id="181" depart="108.60">
        <route edges="1442 -1442 -15 13 -178 -126 126"/>
    </vehicle>
    <vehicle id="182" depart="109.20">
        <route edges="-479 475 -240 -221 -7 3 15"/>
    </vehicle>
    <vehicle id="183" depart="109.80">
        <route edges="-1846 -1833 1833"/>
    </vehicle>
    <vehicle id="184" depart="110.40">
        <route edges="-1002 -751 -543 545"/>
    </vehicle>
    <vehicle id="185" depart="111.00">
        <route edges="1005 1450 -758 -545 -495 487 -530 529 985 1415 1599 1840"/>
    </vehicle>
    <vehicle id="186" depart="111.60">
        <route edges="1840 -1654 -17 25 54 171"/>
    </vehicle>
    <vehicle id="187" depart="112.20">
        <route edges="-455 984 1415 -1442"/>
    </vehicle>
    <vehicle id="188" depart="112.80">
        <route edges="1655 -1655 -13 15 233 319 458 530 -487"/>
    </vehicle>
    <vehicle id="189" depart="113.40">
        <route edges="-240 240 -475 477"/>
    </vehicle>
    <vehicle id="190" depart="114.00">
        <route edges="178 -178 -126 166 451 -451"/>
    </vehicle>
    <vehicle id="191" depart="114.60">
        <route edges="-236 -215 -202 -7"/>
    </vehicle>
    <vehicle id="192" depart="115.20">
        <route edges="-497 -242 240 -423 431 -431"/>
    </vehicle>
    <vehicle id="193" depart="115.80">
        <route edges="-1595 -1415 -985 -529 530 -487 495 541 -752"/>
    </vehicle>
    <vehicle id="194" depart="116.40">
        <route edges="617 -617 -499 -242 -221 110 -84 52 -33 37 126 178"/>
    </vehicle>
    <vehicle id="195" depart="117.00">
        <route edges="530 -530 -458 -319 -233 -15 13 1655"/>
    </vehicle>
    <vehicle id="196" depart="117.60">
        <route edges="-227 227 236 427 477 -752 756 1005 1450"/>
    </vehicle>
    <vehicle id="197" depart="118.20">
        <route edges="-1002 1002 -756 752 -477 475 -423"/>
    </vehicle>
    <vehicle id="198" depart="118.80">
        <route edges="-529 -458 -319 -233 -15 13 -178 1567"/>
    </vehicle>
    <vehicle id="199" depart="119.40">
        <route edges="1599 -1599 -1415 -985 -529 530 -487 495 541 997 -997"/>
    </vehicle>
    <vehicle id="200" depart="120.00">
        <route edges="-539 -483 495 543 743 -1959"/>
    </vehicle>
    <vehicle id="201" depart="120.60">
        <route edges="-7 11 227 236 427 479 535"/>
    </vehicle>
    <vehicle id="202" depart="121.20">
        <route edges="25 -25 17 -17"/>
    </vehicle>
    <vehicle id="203" depart="121.80">
        <route edges="-1452 1450 -758 752 -477 475 -240 242 497 611 783 1286"/>
    </vehicle>
    <vehicle id="204" depart="122.40">
        <route edges="1461 -1689 1692 -617 -535 -479 477 -541 -495"/>
    </vehicle>
    <vehicle id="205" depart="123.00">
        <route edges="37 -37 -19 -9 11 208"/>
    </vehicle>
    <vehicle id="206" depart="123.60">
        <route edges="167 -106 84 -110 202 -208"/>
    </vehicle>
    <vehicle id="207" depart="124.20">
        <route edges="-170 170 -110 221 242 499 617 -1455 -1122"/>
    </vehicle>
    <vehicle id="208" depart="124.80">
        <route edges="-1835 1833 1840 -1654 -17 25 106"/>
    </vehicle>
    <vehicle id="209" depart="125.40">
        <route edges="477 -541 -495 487 -530 529 985 1415 -1442"/>
    </vehicle>
    <vehicle id="210" depart="126.00">
        <route edges="-508 -451 -166 -37 33 -52 84 -110 221 240 -475 477 -752 758 -1450 1452 1671"/>
    </vehicle>
    <vehicle id="211" depart="126.60">
        <route edges="-1699 -1689 1692 -617 -499 -242 -221 110 -84 52 -33 37 166 451 524 1824"/>
    </vehicle>
    <vehicle id="212" depart="127.20">
        <route edges="-776 -545 -495 487 -530 -458 -319 -231"/>
    </vehicle>
    <vehicle id="213" depart="127.80">
        <route edges="1599 -1599 -1415 -985 -529 530 -487 495 545 758 -1450 -1005"/>
    </vehicle>
    <vehicle id="214" depart="128.40">
        <route edges="1964 -1687 -1452 1450 -758 752 -477 -427 -236 -227 231"/>
    </vehicle>
    <vehicle id="215" depart="129.00">
        <route edges="-1461 -1286 -783 -611 -497 -242 240 -475 477 -752 756 -756"/>
    </vehicle>
    <vehicle id="216" depart="129.60">
        <route edges="-1689 1692 -617 -535 -479 477 -752 758"/>
    </vehicle>
    <vehicle id="217" depart="130.20">
        <route edges="-9 3 13 -13"/>
    </vehicle>
    <vehicle id="218" depart="130.80">
        <route edges="-1839 -1595 -1442 -15 -3 7 221 240 -475 477"/>
    </vehicle>
    <vehicle id="219" depart="131.40">
        <route edges="-545 -495 487 -530 -458 -319 259"/>
    </vehicle>
    <vehicle id="220" depart="132.00">
        <route edges="166 -166 126 178 -13 15 233 259 984"/>
    </vehicle>
    <vehicle id="221" depart="132.60">
        <route edges="1416 -1416 -987 -529 530 -487 495 545 752"/>
    </vehicle>
    <vehicle id="222" depart="133.20">
        <route edges="52 -33 37 126 178 1654"/>
    </vehicle>
    <vehicle id="223" depart="133.80">
        <route edges="178 -13 -3 7 221 242 497 611 783 1226"/>
    </vehicle>
    <vehicle id="224" depart="134.40">
        <route edges="431 495 545 756 1005 1450"/>
    </vehicle>
    <vehicle id="225" depart="135.00">
        <route edges="529 -529 530 -487 495 543 751 1964 -1687 1671 1970"/>
    </vehicle>
    <vehicle id="226" depart="135.60">
        <route edges="-743 -543 541 -477 475 -240 242 -242"/>
    </vehicle>
    <vehicle id="227" depart="136.20">
        <route edges="-1839 -1595 -1415 -985 -529 530 -487 495 545 758 -1450 1452 1687"/>
    </vehicle>
    <vehicle id="228" depart="136.80">
        <route edges="221 -221 -7 3 13"/>
    </vehicle>
    <vehicle id="229" depart="137.40">
        <route edges="1457 1692 -617 -499 -242 -221 -7 3 -3"/>
    </vehicle>
    <vehicle id="230" depart="138.00">
        <route edges="-1443 -997 -477 475 -240 -221 110 -84 52 -33 37 -37"/>
    </vehicle>
    <vehicle id="231" depart="138.60">
        <route edges="-1964 1002 -756 752 -477"/>
    </vehicle>
    <vehicle id="232" depart="139.20">
        <route edges="1005 -1005 -1002 -751 743 -1959 -1663"/>
    </vehicle>
    <vehicle id="233" depart="139.80">
        <route edges="-1824 1814"/>
    </vehicle>
    <vehicle id="234" depart="140.40">
        <route edges="170 -110 202 -208 231 319 472 987 1418 -1418"/>
    </vehicle>
    <vehicle id="235" depart="141.00">
        <route edges="-499 -242 -221 -7 3 15 1442"/>
    </vehicle>
    <vehicle id="236" depart="141.60">
        <route edges="-51 -25 17 1654 -1840"/>
    </vehicle>
    <vehicle id="237" depart="142.20">
        <route edges="-52 84 -110 221 240 -423 431 483 537"/>
    </vehicle>
    <vehicle id="238" depart="142.80">
        <route edges="13 -178 -126 166 451 524 1824"/>
    </vehicle>
    <vehicle id="239" depart="143.40">
        <route edges="483 -483 -431 -236 -227 227"/>
    </vehicle>
    <vehicle id="240" depart="144.00">
        <route edges="-477 477 -752 758 -1450 -1005"/>
    </vehicle>
    <vehicle id="241" depart="144.60">
        <route edges="-423 -236 -227 208"/>
    </vehicle>
    <vehicle id="242" depart="145.20">
        <route edges="479 -479 477 -752 756"/>