<?xml version="1.0" encoding="UTF-8"?>

<!-- generated on 2026-04-16T17:52:35.942625-08:00 by Eclipse SUMO netgenerate 1.26.0
<netgenerateConfiguration xmlns:xsi="http://www.w3.org/2001/XMLSchema-instance" xsi:noNamespaceSchemaLocation="http://sumo.dlr.de/xsd/netgenerateConfiguration.xsd">

    <random_network>
        <rand value="true"/>
        <rand.iterations value="100"/>
        <rand.max-distance value="300"/>
    </random_network>

    <output>
        <output-file value="D:\research project\NeurIPS\logic building\Meta-MOHRL- Antigravity code building\sumo_configs\15_topologies\topo_09_heterogeneous_mesh_B.net.xml"/>
    </output>

</netgenerateConfiguration>
-->

<net version="1.20" junctionCornerDetail="5" limitTurnSpeed="5.50" xmlns:xsi="http://www.w3.org/2001/XMLSchema-instance" xsi:noNamespaceSchemaLocation="http://sumo.dlr.de/xsd/net_file.xsd">

    <location netOffset="1478.04,813.10" convBoundary="0.00,0.00,2639.46,2020.04" origBoundary="-1478.04,-813.10,1161.42,1206.94" projParameter="!"/>

    <edge id=":1_0" function="internal">
        <lane id=":1_0_0" index="0" speed="5.98" length="9.08" shape="1476.57,821.40 1476.16,818.83 1475.03,817.25 1473.18,816.67 1470.61,817.08"/>
    </edge>
    <edge id=":1_1" function="internal">
        <lane id=":1_1_0" index="0" speed="13.89" length="14.86" shape="1476.57,821.40 1476.43,817.67 1476.12,813.98 1475.60,810.32 1474.85,806.67"/>
    </edge>
    <edge id=":1_2" function="internal">
        <lane id=":1_2_0" index="0" speed="8.09" length="4.36" shape="1476.57,821.40 1477.07,817.06"/>
    </edge>
    <edge id=":1_3" function="internal">
        <lane id=":1_3_0" index="0" speed="3.65" length="1.44" shape="1476.57,821.40 1477.35,820.18"/>
    </edge>
    <edge id=":1_16" function="internal">
        <lane id=":1_16_0" index="0" speed="8.09" length="10.76" shape="1477.07,817.06 1478.72,814.01 1481.52,812.25 1485.47,811.78"/>
    </edge>
    <edge id=":1_17" function="internal">
        <lane id=":1_17_0" index="0" speed="3.65" length="3.23" shape="1477.35,820.18 1478.14,819.77 1478.95,820.16 1479.77,821.35"/>
    </edge>
    <edge id=":1_4" function="internal">
        <lane id=":1_4_0" index="0" speed="6.62" length="9.76" shape="1485.35,814.98 1482.87,815.30 1481.11,816.46 1480.08,818.48 1479.77,821.35"/>
    </edge>
    <edge id=":1_5" function="internal">
        <lane id=":1_5_0" index="0" speed="13.89" length="14.95" shape="1485.35,814.98 1481.61,815.02 1477.90,815.40 1474.23,816.10 1470.61,817.08"/>
    </edge>
    <edge id=":1_6" function="internal">
        <lane id=":1_6_0" index="0" speed="9.03" length="14.51" shape="1485.35,814.98 1481.48,814.34 1478.43,812.74 1476.23,810.18 1474.85,806.67"/>
    </edge>
    <edge id=":1_7" function="internal">
        <lane id=":1_7_0" index="0" speed="3.65" length="4.67" shape="1485.35,814.98 1484.18,814.13 1483.81,813.32 1484.24,812.53 1485.47,811.78"/>
    </edge>
    <edge id=":1_8" function="internal">
        <lane id=":1_8_0" index="0" speed="7.70" length="10.32" shape="1477.96,805.92 1478.94,808.40 1480.51,810.20 1482.69,811.33 1485.47,811.78"/>
    </edge>
    <edge id=":1_9" function="internal">
        <lane id=":1_9_0" index="0" speed="13.89" length="15.56" shape="1477.96,805.92 1478.73,809.68 1479.27,813.58 1479.62,817.51 1479.77,821.35"/>
    </edge>
    <edge id=":1_10" function="internal">
        <lane id=":1_10_0" index="0" speed="8.41" length="4.08" shape="1477.96,805.92 1478.25,809.72 1478.15,809.98"/>
    </edge>
    <edge id=":1_11" function="internal">
        <lane id=":1_11_0" index="0" speed="3.65" length="1.44" shape="1477.96,805.92 1477.46,807.28"/>
    </edge>
    <edge id=":1_18" function="internal">
        <lane id=":1_18_0" index="0" speed="8.41" length="10.92" shape="1478.15,809.98 1477.12,812.84 1474.57,815.30 1470.61,817.08"/>
    </edge>
    <edge id=":1_19" function="internal">
        <lane id=":1_19_0" index="0" speed="3.65" length="3.23" shape="1477.46,807.28 1476.78,807.85 1475.91,807.65 1474.85,806.67"/>
    </edge>
    <edge id=":1_12" function="internal">
        <lane id=":1_12_0" index="0" speed="7.00" length="10.09" shape="1469.66,814.02 1472.41,812.81 1474.20,811.18 1475.01,809.13 1474.85,806.67"/>
    </edge>
    <edge id=":1_13" function="internal">
        <lane id=":1_13_0" index="0" speed="13.89" length="16.03" shape="1469.66,814.02 1473.45,813.02 1477.49,812.28 1481.57,811.84 1485.47,811.78"/>
    </edge>
    <edge id=":1_14" function="internal">
        <lane id=":1_14_0" index="0" speed="7.59" length="15.41" shape="1469.66,814.02 1474.02,813.32 1477.16,814.31 1479.08,816.99 1479.77,821.35"/>
    </edge>
    <edge id=":1_15" function="internal">
        <lane id=":1_15_0" index="0" speed="3.65" length="4.67" shape="1469.66,814.02 1471.05,814.43 1471.67,815.08 1471.52,815.96 1470.61,817.08"/>
    </edge>
    <edge id=":10_0" function="internal">
        <lane id=":10_0_0" index="0" speed="9.28" length="13.53" shape="1300.89,869.75 1298.25,871.11 1296.24,873.37 1294.86,876.51 1294.11,880.55"/>
    </edge>
    <edge id=":10_1" function="internal">
        <lane id=":10_1_0" index="0" speed="13.89" length="16.93" shape="1300.89,869.75 1297.08,871.11 1293.02,872.84 1289.03,874.75 1285.44,876.64"/>
    </edge>
    <edge id=":10_2" function="internal">
        <lane id=":10_2_0" index="0" speed="7.97" length="3.77" shape="1300.89,869.75 1297.16,870.35"/>
    </edge>
    <edge id=":10_3" function="internal">
        <lane id=":10_3_0" index="0" speed="3.65" length="1.44" shape="1300.89,869.75 1299.51,869.34"/>
    </edge>
    <edge id=":10_16" function="internal">
        <lane id=":10_16_0" index="0" speed="7.97" length="10.48" shape="1297.16,870.35 1297.02,870.37 1293.91,869.59 1291.54,867.42 1289.92,863.86"/>
    </edge>
    <edge id=":10_17" function="internal">
        <lane id=":10_17_0" index="0" speed="3.65" length="3.23" shape="1299.51,869.34 1298.89,868.70 1299.03,867.81 1299.94,866.69"/>
    </edge>
    <edge id=":10_4" function="internal">
        <lane id=":10_4_0" index="0" speed="6.47" length="9.03" shape="1292.99,862.96 1294.01,865.22 1295.52,866.59 1297.49,867.08 1299.94,866.69"/>
    </edge>
    <edge id=":10_5" function="internal">
        <lane id=":10_5_0" index="0" speed="13.89" length="17.70" shape="1292.99,862.96 1293.82,867.03 1294.26,871.69 1294.34,876.38 1294.11,880.55"/>
    </edge>
    <edge id=":10_6" function="internal">
        <lane id=":10_6_0" index="0" speed="9.50" length="17.02" shape="1292.99,862.96 1293.41,866.89 1292.30,870.48 1289.64,873.73 1285.44,876.64"/>
    </edge>
    <edge id=":10_7" function="internal">
        <lane id=":10_7_0" index="0" speed="3.65" length="4.67" shape="1292.99,862.96 1292.56,864.34 1291.90,864.95 1291.02,864.79 1289.92,863.86"/>
    </edge>
    <edge id=":10_8" function="internal">
        <lane id=":10_8_0" index="0" speed="8.26" length="12.66" shape="1283.90,873.84 1287.16,871.62 1289.25,869.22 1290.17,866.63 1289.92,863.86"/>
    </edge>
    <edge id=":10_9" function="internal">
        <lane id=":10_9_0" index="0" speed="13.89" length="17.58" shape="1283.90,873.84 1287.58,871.91 1291.77,869.91 1296.04,868.09 1299.94,866.69"/>
    </edge>
    <edge id=":10_10" function="internal">
        <lane id=":10_10_0" index="0" speed="7.38" length="5.42" shape="1283.90,873.84 1288.84,871.88 1288.95,871.90"/>
    </edge>
    <edge id=":10_11" function="internal">
        <lane id=":10_11_0" index="0" speed="3.65" length="1.44" shape="1283.90,873.84 1285.34,873.96"/>
    </edge>
    <edge id=":10_18" function="internal">
        <lane id=":10_18_0" index="0" speed="7.38" length="11.97" shape="1288.95,871.90 1292.19,872.35 1293.95,875.24 1294.11,880.55"/>
    </edge>
    <edge id=":10_19" function="internal">
        <lane id=":10_19_0" index="0" speed="3.65" length="3.23" shape="1285.34,873.96 1286.07,874.46 1286.11,875.36 1285.44,876.64"/>
    </edge>
    <edge id=":10_12" function="internal">
        <lane id=":10_12_0" index="0" speed="5.59" length="9.34" shape="1290.93,880.24 1290.84,877.39 1289.90,875.84 1288.10,875.59 1285.44,876.64"/>
    </edge>
    <edge id=":10_13" function="internal">
        <lane id=":10_13_0" index="0" speed="13.89" length="16.49" shape="1290.93,880.24 1291.17,876.26 1291.13,871.98 1290.73,867.75 1289.92,863.86"/>
    </edge>
    <edge id=":10_14" function="internal">
        <lane id=":10_14_0" index="0" speed="10.43" length="17.30" shape="1290.93,880.24 1291.89,875.24 1293.72,871.31 1296.40,868.46 1299.94,866.69"/>
    </edge>
    <edge id=":10_15" function="internal">
        <lane id=":10_15_0" index="0" speed="3.65" length="4.67" shape="1290.93,880.24 1291.84,879.12 1292.67,878.80 1293.43,879.28 1294.11,880.55"/>
    </edge>
    <edge id=":1004_0" function="internal">
        <lane id=":1004_0_0" index="0" speed="13.89" length="11.53" shape="607.79,1819.39 604.72,1818.46 602.22,1817.95 599.67,1817.81 596.46,1817.98"/>
    </edge>
    <edge id=":1004_1" function="internal">
        <lane id=":1004_1_0" index="0" speed="8.03" length="3.59" shape="607.79,1819.39 604.67,1817.87 604.59,1817.79"/>
    </edge>
    <edge id=":1004_2" function="internal">
        <lane id=":1004_2_0" index="0" speed="3.65" length="1.44" shape="607.79,1819.39 606.90,1818.26"/>
    </edge>
    <edge id=":1004_9" function="internal">
        <lane id=":1004_9_0" index="0" speed="8.03" length="9.31" shape="604.59,1817.79 602.64,1815.70 601.71,1812.87 601.87,1809.40"/>
    </edge>
    <edge id=":1004_10" function="internal">
        <lane id=":1004_10_0" index="0" speed="3.65" length="3.23" shape="606.90,1818.26 606.77,1817.37 607.40,1816.74 608.79,1816.35"/>
    </edge>
    <edge id=":1004_3" function="internal">
        <lane id=":1004_3_0" index="0" speed="6.53" length="8.21" shape="605.02,1809.99 604.91,1812.20 605.51,1814.00 606.80,1815.38 608.79,1816.35"/>
    </edge>
    <edge id=":1004_4" function="internal">
        <lane id=":1004_4_0" index="0" speed="8.44" length="12.70" shape="605.02,1809.99 603.96,1813.27 602.18,1815.70 599.69,1817.26 596.46,1817.98"/>
    </edge>
    <edge id=":1004_5" function="internal">
        <lane id=":1004_5_0" index="0" speed="3.65" length="4.67" shape="605.02,1809.99 604.01,1811.02 603.15,1811.27 602.44,1810.73 601.87,1809.40"/>
    </edge>
    <edge id=":1004_6" function="internal">
        <lane id=":1004_6_0" index="0" speed="7.00" length="8.48" shape="596.21,1814.79 598.34,1814.31 599.99,1813.25 601.17,1811.62 601.87,1809.40"/>
    </edge>
    <edge id=":1004_7" function="internal">
        <lane id=":1004_7_0" index="0" speed="13.89" length="12.77" shape="596.21,1814.79 599.61,1814.65 602.59,1814.84 605.52,1815.39 608.79,1816.35"/>
    </edge>
    <edge id=":1004_8" function="internal">
        <lane id=":1004_8_0" index="0" speed="3.65" length="1.44" shape="596.21,1814.79 597.47,1815.49"/>
    </edge>
    <edge id=":1004_11" function="internal">
        <lane id=":1004_11_0" index="0" speed="3.65" length="3.23" shape="597.47,1815.49 597.93,1816.25 597.60,1817.08 596.46,1817.98"/>
    </edge>
    <edge id=":105_0" function="internal">
        <lane id=":105_0_0" index="0" speed="13.89" length="19.60" shape="2038.48,1030.80 2025.55,1045.53"/>
    </edge>
    <edge id=":105_1" function="internal">
        <lane id=":105_1_0" index="0" speed="13.89" length="4.82" shape="2038.48,1030.80 2034.95,1033.87 2034.83,1033.93"/>
    </edge>
    <edge id=":105_2" function="internal">
        <lane id=":105_2_0" index="0" speed="7.52" length="4.39" shape="2038.48,1030.80 2035.09,1033.59"/>
    </edge>
    <edge id=":105_3" function="internal">
        <lane id=":105_3_0" index="0" speed="3.65" length="1.44" shape="2038.48,1030.80 2037.08,1031.15"/>
    </edge>
    <edge id=":105_16" function="internal">
        <lane id=":105_16_0" index="0" speed="13.89" length="15.04" shape="2034.83,1033.93 2030.77,1036.05 2025.95,1037.34 2020.49,1037.75"/>
    </edge>
    <edge id=":105_17" function="internal">
        <lane id=":105_17_0" index="0" speed="7.52" length="11.77" shape="2035.09,1033.59 2034.87,1033.77 2031.61,1034.40 2028.68,1032.71 2026.10,1028.68"/>
    </edge>
    <edge id=":105_18" function="internal">
        <lane id=":105_18_0" index="0" speed="3.65" length="3.23" shape="2037.08,1031.15 2036.22,1030.90 2035.90,1030.07 2036.13,1028.64"/>
    </edge>
    <edge id=":105_4" function="internal">
        <lane id=":105_4_0" index="0" speed="5.87" length="9.31" shape="2029.01,1027.33 2030.50,1029.68 2032.18,1030.67 2034.06,1030.33 2036.13,1028.64"/>
    </edge>
    <edge id=":105_5" function="internal">
        <lane id=":105_5_0" index="0" speed="11.30" length="19.63" shape="2029.01,1027.33 2030.38,1031.90 2030.26,1036.45 2028.65,1040.99 2025.55,1045.53"/>
    </edge>
    <edge id=":105_6" function="internal">
        <lane id=":105_6_0" index="0" speed="7.72" length="17.57" shape="2029.01,1027.33 2030.30,1031.92 2029.31,1035.18 2026.04,1037.13 2020.49,1037.75"/>
    </edge>
    <edge id=":105_7" function="internal">
        <lane id=":105_7_0" index="0" speed="3.65" length="4.67" shape="2029.01,1027.33 2028.79,1028.76 2028.23,1029.46 2027.33,1029.43 2026.10,1028.68"/>
    </edge>
    <edge id=":105_8" function="internal">
        <lane id=":105_8_0" index="0" speed="6.12" length="10.50" shape="2020.50,1034.55 2023.98,1034.20 2026.08,1033.11 2026.78,1031.27 2026.10,1028.68"/>
    </edge>
    <edge id=":105_9" function="internal">
        <lane id=":105_9_0" index="0" speed="13.02" length="17.19" shape="2020.50,1034.55 2025.29,1034.20 2029.49,1033.10 2033.10,1031.25 2036.13,1028.64"/>
    </edge>
    <edge id=":105_10" function="internal">
        <lane id=":105_10_0" index="0" speed="7.38" length="18.30" shape="2020.50,1034.55 2026.18,1035.27 2028.91,1037.33 2028.70,1040.76 2025.55,1045.53"/>
    </edge>
    <edge id=":105_11" function="internal">
        <lane id=":105_11_0" index="0" speed="3.65" length="4.67" shape="2020.50,1034.55 2021.70,1035.36 2022.09,1036.16 2021.69,1036.96 2020.49,1037.75"/>
    </edge>
    <edge id=":105_12" function="internal">
        <lane id=":105_12_0" index="0" speed="5.52" length="9.51" shape="2023.11,1043.46 2024.75,1040.98 2024.86,1039.20 2023.44,1038.12 2020.49,1037.75"/>
    </edge>
    <edge id=":105_13" function="internal">
        <lane id=":105_13_0" index="0" speed="10.23" length="15.98" shape="2023.11,1043.46 2025.68,1039.72 2027.04,1036.01 2027.18,1032.33 2026.10,1028.68"/>
    </edge>
    <edge id=":105_14" function="internal">
        <lane id=":105_14_0" index="0" speed="13.89" length="19.72" shape="2023.11,1043.46 2036.13,1028.64"/>
    </edge>
    <edge id=":105_15" function="internal">
        <lane id=":105_15_0" index="0" speed="3.65" length="1.44" shape="2023.11,1043.46 2024.50,1043.06"/>
    </edge>
    <edge id=":105_19" function="internal">
        <lane id=":105_19_0" index="0" speed="3.65" length="3.23" shape="2024.50,1043.06 2025.36,1043.27 2025.71,1044.10 2025.55,1045.53"/>
    </edge>
    <edge id=":1117_0" function="internal">
        <lane id=":1117_0_0" index="0" speed="3.65" length="4.67" shape="1102.38,1943.29 1102.43,1944.73 1102.02,1945.53 1101.13,1945.67 1099.78,1945.17"/>
    </edge>
    <edge id=":1121_0" function="internal">
        <lane id=":1121_0_0" index="0" speed="5.82" length="9.13" shape="1633.55,1532.78 1632.53,1530.31 1631.07,1529.10 1629.17,1529.14 1626.84,1530.44"/>
    </edge>
    <edge id=":1121_1" function="internal">
        <lane id=":1121_1_0" index="0" speed="13.89" length="15.87" shape="1633.55,1532.78 1632.65,1528.99 1631.89,1525.02 1631.32,1521.01 1631.01,1517.14"/>
    </edge>
    <edge id=":1121_2" function="internal">
        <lane id=":1121_2_0" index="0" speed="7.56" length="4.82" shape="1633.55,1532.78 1633.01,1528.15 1633.06,1527.99"/>
    </edge>
    <edge id=":1121_3" function="internal">
        <lane id=":1121_3_0" index="0" speed="3.65" length="1.44" shape="1633.55,1532.78 1634.02,1531.41"/>
    </edge>
    <edge id=":1121_16" function="internal">
        <lane id=":1121_16_0" index="0" speed="7.56" length="11.06" shape="1633.06,1527.99 1634.16,1524.99 1637.01,1523.29 1641.55,1523.06"/>
    </edge>
    <edge id=":1121_17" function="internal">
        <lane id=":1121_17_0" index="0" speed="3.65" length="3.23" shape="1634.02,1531.41 1634.69,1530.83 1635.57,1531.01 1636.64,1531.97"/>
    </edge>
    <edge id=":1121_4" function="internal">
        <lane id=":1121_4_0" index="0" speed="5.94" length="9.28" shape="1641.26,1526.24 1638.63,1526.39 1636.98,1527.39 1636.32,1529.25 1636.64,1531.97"/>
    </edge>
    <edge id=":1121_5" function="internal">
        <lane id=":1121_5_0" index="0" speed="13.48" length="15.33" shape="1641.26,1526.24 1637.47,1526.28 1633.68,1527.04 1630.07,1528.45 1626.84,1530.44"/>
    </edge>
    <edge id=":1121_6" function="internal">
        <lane id=":1121_6_0" index="0" speed="8.68" length="15.18" shape="1641.26,1526.24 1636.90,1525.33 1633.74,1523.51 1631.78,1520.78 1631.01,1517.14"/>
    </edge>
    <edge id=":1121_7" function="internal">
        <lane id=":1121_7_0" index="0" speed="3.65" length="4.67" shape="1641.26,1526.24 1640.14,1525.34 1639.81,1524.51 1640.28,1523.75 1641.55,1523.06"/>
    </edge>
    <edge id=":1121_8" function="internal">
        <lane id=":1121_8_0" index="0" speed="7.32" length="10.52" shape="1634.21,1517.01 1634.75,1519.41 1636.16,1521.22 1638.42,1522.44 1641.55,1523.06"/>
    </edge>
    <edge id=":1121_9" function="internal">
        <lane id=":1121_9_0" index="0" speed="13.89" length="15.19" shape="1634.21,1517.01 1634.50,1520.77 1635.03,1524.55 1635.76,1528.30 1636.64,1531.97"/>
    </edge>
    <edge id=":1121_10" function="internal">
        <lane id=":1121_10_0" index="0" speed="11.35" length="3.82" shape="1634.21,1517.01 1633.87,1520.71 1633.83,1520.81"/>
    </edge>
    <edge id=":1121_11" function="internal">
        <lane id=":1121_11_0" index="0" speed="3.65" length="1.44" shape="1634.21,1517.01 1633.46,1518.24"/>
    </edge>
    <edge id=":1121_18" function="internal">
        <lane id=":1121_18_0" index="0" speed="11.35" length="12.12" shape="1633.83,1520.81 1632.52,1524.18 1630.18,1527.42 1626.84,1530.44"/>
    </edge>
    <edge id=":1121_19" function="internal">
        <lane id=":1121_19_0" index="0" speed="3.65" length="3.23" shape="1633.46,1518.24 1632.68,1518.67 1631.86,1518.31 1631.01,1517.14"/>
    </edge>
    <edge id=":1121_12" function="internal">
        <lane id=":1121_12_0" index="0" speed="10.24" length="12.85" shape="1624.91,1527.88 1627.67,1525.42 1629.61,1522.80 1630.72,1520.05 1631.01,1517.14"/>
    </edge>
    <edge id=":1121_13" function="internal">
        <lane id=":1121_13_0" index="0" speed="13.89" length="17.60" shape="1624.91,1527.88 1628.49,1525.79 1632.86,1524.17 1637.41,1523.20 1641.55,1523.06"/>
    </edge>
    <edge id=":1121_14" function="internal">
        <lane id=":1121_14_0" index="0" speed="7.49" length="15.97" shape="1624.91,1527.88 1628.99,1525.61 1632.31,1525.54 1634.86,1527.66 1636.64,1531.97"/>
    </edge>
    <edge id=":1121_15" function="internal">
        <lane id=":1121_15_0" index="0" speed="3.65" length="4.67" shape="1624.91,1527.88 1626.35,1527.80 1627.15,1528.20 1627.31,1529.08 1626.84,1530.44"/>
    </edge>
    <edge id=":113_0" function="internal">
        <lane id=":113_0_0" index="0" speed="3.98" length="3.90" shape="1995.06,395.98 1994.30,395.08 1993.58,394.82 1992.90,395.18 1992.27,396.18"/>
    </edge>
    <edge id=":113_1" function="internal">
        <lane id=":113_1_0" index="0" speed="6.23" length="11.70" shape="1989.36,394.83 1991.26,391.84 1993.29,390.74 1995.46,391.55 1997.75,394.25"/>
    </edge>
    <edge id=":12_0" function="internal">
        <lane id=":12_0_0" index="0" speed="13.89" length="18.66" shape="1559.72,607.67 1556.76,604.54 1552.86,601.39 1548.66,598.64 1544.79,596.71"/>
    </edge>
    <edge id=":12_1" function="internal">
        <lane id=":12_1_0" index="0" speed="13.89" length="21.25" shape="1559.72,607.67 1557.18,603.69 1554.47,598.45 1552.08,593.05 1550.48,588.60"/>
    </edge>
    <edge id=":12_2" function="internal">
        <lane id=":12_2_0" index="0" speed="11.19" length="6.13" shape="1559.72,607.67 1557.28,603.30 1557.08,602.19"/>
    </edge>
    <edge id=":12_3" function="internal">
        <lane id=":12_3_0" index="0" speed="7.54" length="5.56" shape="1559.72,607.67 1557.26,603.28 1557.28,602.75"/>
    </edge>
    <edge id=":12_4" function="internal">
        <lane id=":12_4_0" index="0" speed="3.65" length="1.44" shape="1559.72,607.67 1559.62,606.23"/>
    </edge>
    <edge id=":12_25" function="internal">
        <lane id=":12_25_0" index="0" speed="11.19" length="14.32" shape="1557.08,602.19 1556.45,598.66 1557.23,593.72 1559.62,588.51"/>
    </edge>
    <edge id=":12_26" function="internal">
        <lane id=":12_26_0" index="0" speed="7.54" length="11.97" shape="1557.28,602.75 1557.39,599.90 1560.12,597.53 1565.45,596.17"/>
    </edge>
    <edge id=":12_27" function="internal">
        <lane id=":12_27_0" index="0" speed="3.65" length="3.23" shape="1559.62,606.23 1560.01,605.43 1560.89,605.25 1562.26,605.72"/>
    </edge>
    <edge id=":12_5" function="internal">
        <lane id=":12_5_0" index="0" speed="5.85" length="9.96" shape="1565.86,599.34 1562.73,600.12 1561.09,601.44 1560.93,603.30 1562.26,605.72"/>
    </edge>
    <edge id=":12_6" function="internal">
        <lane id=":12_6_0" index="0" speed="13.89" length="21.35" shape="1565.86,599.34 1561.13,599.46 1555.21,598.96 1549.35,597.99 1544.79,596.71"/>
    </edge>
    <edge id=":12_7" function="internal">
        <lane id=":12_7_0" index="0" speed="10.15" length="20.75" shape="1565.86,599.34 1560.45,599.25 1556.09,597.42 1552.76,593.88 1550.48,588.60"/>
    </edge>
    <edge id=":12_8" function="internal">
        <lane id=":12_8_0" index="0" speed="7.48" length="18.50" shape="1565.86,599.34 1560.31,599.33 1557.42,597.52 1557.19,593.91 1559.62,588.51"/>
    </edge>
    <edge id=":12_9" function="internal">
        <lane id=":12_9_0" index="0" speed="3.65" length="4.67" shape="1565.86,599.34 1564.57,598.70 1564.07,597.96 1564.36,597.12 1565.45,596.17"/>
    </edge>
    <edge id=":12_10" function="internal">
        <lane id=":12_10_0" index="0" speed="5.67" length="9.98" shape="1562.37,590.14 1561.00,593.13 1561.06,595.13 1562.55,596.14 1565.45,596.17"/>
    </edge>
    <edge id=":12_11" function="internal">
        <lane id=":12_11_0" index="0" speed="10.13" length="16.62" shape="1562.37,590.14 1560.38,594.44 1559.70,598.46 1560.33,602.22 1562.26,605.72"/>
    </edge>
    <edge id=":12_12" function="internal">
        <lane id=":12_12_0" index="0" speed="10.17" length="20.72" shape="1562.37,590.14 1558.82,594.66 1554.71,597.26 1550.03,597.95 1544.79,596.71"/>
    </edge>
    <edge id=":12_13" function="internal">
        <lane id=":12_13_0" index="0" speed="7.40" length="18.91" shape="1562.37,590.14 1558.73,594.91 1555.53,596.24 1552.78,594.14 1550.48,588.60"/>
    </edge>
    <edge id=":12_14" function="internal">
        <lane id=":12_14_0" index="0" speed="3.65" length="4.67" shape="1562.37,590.14 1561.07,590.77 1560.17,590.70 1559.69,589.95 1559.62,588.51"/>
    </edge>
    <edge id=":12_15" function="internal">
        <lane id=":12_15_0" index="0" speed="5.49" length="9.65" shape="1553.55,587.72 1554.73,590.54 1556.13,591.61 1557.76,590.94 1559.62,588.51"/>
    </edge>
    <edge id=":12_16" function="internal">
        <lane id=":12_16_0" index="0" speed="9.00" length="16.14" shape="1553.55,587.72 1555.33,591.86 1557.91,594.65 1561.28,596.08 1565.45,596.17"/>
    </edge>
    <edge id=":12_17" function="internal">
        <lane id=":12_17_0" index="0" speed="13.89" length="20.06" shape="1553.55,587.72 1555.07,592.00 1557.28,597.04 1559.81,601.91 1562.26,605.72"/>
    </edge>
    <edge id=":12_18" function="internal">
        <lane id=":12_18_0" index="0" speed="7.49" length="3.94" shape="1553.55,587.72 1554.20,591.61"/>
    </edge>
    <edge id=":12_19" function="internal">
        <lane id=":12_19_0" index="0" speed="3.65" length="1.44" shape="1553.55,587.72 1553.12,589.09"/>
    </edge>
    <edge id=":12_28" function="internal">
        <lane id=":12_28_0" index="0" speed="7.49" length="14.53" shape="1554.20,591.61 1554.52,593.56 1553.39,597.01 1550.14,598.06 1544.79,596.71"/>
    </edge>
    <edge id=":12_29" function="internal">
        <lane id=":12_29_0" index="0" speed="3.65" length="3.23" shape="1553.12,589.09 1552.46,589.70 1551.58,589.54 1550.48,588.60"/>
    </edge>
    <edge id=":12_20" function="internal">
        <lane id=":12_20_0" index="0" speed="5.69" length="10.01" shape="1545.98,593.73 1548.79,594.42 1550.47,593.79 1551.04,591.85 1550.48,588.60"/>
    </edge>
    <edge id=":12_21" function="internal">
        <lane id=":12_21_0" index="0" speed="9.03" length="16.13" shape="1545.98,593.73 1550.02,594.68 1553.64,594.12 1556.84,592.06 1559.62,588.51"/>
    </edge>
    <edge id=":12_22" function="internal">
        <lane id=":12_22_0" index="0" speed="13.89" length="19.75" shape="1545.98,593.73 1550.28,594.98 1555.60,595.89 1560.97,596.32 1565.45,596.17"/>
    </edge>
    <edge id=":12_23" function="internal">
        <lane id=":12_23_0" index="0" speed="13.89" length="20.35" shape="1545.98,593.73 1550.05,595.83 1554.72,598.93 1559.08,602.43 1562.26,605.72"/>
    </edge>
    <edge id=":12_24" function="internal">
        <lane id=":12_24_0" index="0" speed="3.65" length="4.67" shape="1545.98,593.73 1546.80,594.92 1546.87,595.81 1546.20,596.41 1544.79,596.71"/>
    </edge>
    <edge id=":1227_0" function="internal">
        <lane id=":1227_0_0" index="0" speed="13.89" length="16.90" shape="2153.58,1487.44 2150.47,1490.01 2146.82,1492.47 2143.01,1494.70 2139.42,1496.57"/>
    </edge>
    <edge id=":1227_1" function="internal">
        <lane id=":1227_1_0" index="0" speed="9.81" length="3.93" shape="2153.58,1487.44 2150.58,1489.35 2150.22,1489.42"/>
    </edge>
    <edge id=":1227_2" function="internal">
        <lane id=":1227_2_0" index="0" speed="3.65" length="1.44" shape="2153.58,1487.44 2152.16,1487.68"/>
    </edge>
    <edge id=":1227_9" function="internal">
        <lane id=":1227_9_0" index="0" speed="9.81" length="12.62" shape="2150.22,1489.42 2147.01,1489.95 2142.86,1489.23 2138.13,1487.20"/>
    </edge>
    <edge id=":1227_10" function="internal">
        <lane id=":1227_10_0" index="0" speed="3.65" length="3.23" shape="2152.16,1487.68 2151.32,1487.38 2151.06,1486.53 2151.37,1485.12"/>
    </edge>
    <edge id=":1227_3" function="internal">
        <lane id=":1227_3_0" index="0" speed="8.60" length="12.53" shape="2139.64,1484.38 2143.37,1486.04 2146.57,1486.71 2149.24,1486.41 2151.37,1485.12"/>
    </edge>
    <edge id=":1227_4" function="internal">
        <lane id=":1227_4_0" index="0" speed="7.38" length="17.57" shape="2139.64,1484.38 2144.04,1487.51 2145.47,1490.59 2143.93,1493.61 2139.42,1496.57"/>
    </edge>
    <edge id=":1227_5" function="internal">
        <lane id=":1227_5_0" index="0" speed="3.65" length="4.67" shape="2139.64,1484.38 2140.32,1485.65 2140.30,1486.55 2139.56,1487.06 2138.13,1487.20"/>
    </edge>
    <edge id=":1227_6" function="internal">
        <lane id=":1227_6_0" index="0" speed="5.58" length="9.37" shape="2138.01,1493.70 2140.41,1492.12 2141.23,1490.51 2140.47,1488.87 2138.13,1487.20"/>
    </edge>
    <edge id=":1227_7" function="internal">
        <lane id=":1227_7_0" index="0" speed="13.89" length="15.94" shape="2138.01,1493.70 2141.48,1491.91 2145.02,1489.87 2148.39,1487.60 2151.37,1485.12"/>
    </edge>
    <edge id=":1227_8" function="internal">
        <lane id=":1227_8_0" index="0" speed="3.65" length="1.44" shape="2138.01,1493.70 2139.44,1493.89"/>
    </edge>
    <edge id=":1227_11" function="internal">
        <lane id=":1227_11_0" index="0" speed="3.65" length="3.23" shape="2139.44,1493.89 2140.15,1494.43 2140.14,1495.32 2139.42,1496.57"/>
    </edge>
    <edge id=":125_0" function="internal">
        <lane id=":125_0_0" index="0" speed="13.89" length="13.89" shape="1767.42,576.04 1764.14,574.79 1760.83,574.44 1757.41,574.65 1753.81,575.12"/>
    </edge>
    <edge id=":125_1" function="internal">
        <lane id=":125_1_0" index="0" speed="13.89" length="15.67" shape="1767.42,576.04 1764.20,573.95 1761.15,571.41 1758.27,568.63 1755.61,565.83"/>
    </edge>
    <edge id=":125_2" function="internal">
        <lane id=":125_2_0" index="0" speed="3.65" length="1.44" shape="1767.42,576.04 1766.75,574.76"/>
    </edge>
    <edge id=":125_9" function="internal">
        <lane id=":125_9_0" index="0" speed="3.65" length="3.23" shape="1766.75,574.76 1766.78,573.87 1767.51,573.36 1768.95,573.23"/>
    </edge>
    <edge id=":125_3" function="internal">
        <lane id=":125_3_0" index="0" speed="13.89" length="14.66" shape="1757.95,563.64 1760.49,566.35 1763.08,568.91 1765.86,571.24 1768.95,573.23"/>
    </edge>
    <edge id=":125_4" function="internal">
        <lane id=":125_4_0" index="0" speed="7.38" length="4.93" shape="1757.95,563.64 1760.83,567.64"/>
    </edge>
    <edge id=":125_5" function="internal">
        <lane id=":125_5_0" index="0" speed="3.65" length="1.44" shape="1757.95,563.64 1758.18,565.07"/>
    </edge>
    <edge id=":125_10" function="internal">
        <lane id=":125_10_0" index="0" speed="7.38" length="12.65" shape="1760.83,567.64 1761.10,568.02 1761.47,571.39 1759.04,573.76 1753.81,575.12"/>
    </edge>
    <edge id=":125_11" function="internal">
        <lane id=":125_11_0" index="0" speed="3.65" length="3.23" shape="1758.18,565.07 1757.87,565.91 1757.01,566.16 1755.61,565.83"/>
    </edge>
    <edge id=":125_6" function="internal">
        <lane id=":125_6_0" index="0" speed="5.57" length="9.37" shape="1753.40,571.94 1756.19,571.22 1757.48,569.96 1757.29,568.16 1755.61,565.83"/>
    </edge>
    <edge id=":125_7" function="internal">