<?xml version="1.0" encoding="UTF-8"?>

<!-- generated on 2026-04-16T17:52:23.038135-08:00 by Eclipse SUMO netgenerate 1.26.0
<netgenerateConfiguration xmlns:xsi="http://www.w3.org/2001/XMLSchema-instance" xsi:noNamespaceSchemaLocation="http://sumo.dlr.de/xsd/netgenerateConfiguration.xsd">

    <grid_network>
        <grid value="true"/>
        <grid.number value="2"/>
        <grid.length value="300"/>
    </grid_network>

    <output>
        <output-file value="D:\research project\NeurIPS\logic building\Meta-MOHRL- Antigravity code building\sumo_configs\15_topologies\topo_03_symmetric_grid_300m.net.xml"/>
    </output>

</netgenerateConfiguration>
-->

<net version="1.20" junctionCornerDetail="5" limitTurnSpeed="5.50" xmlns:xsi="http://www.w3.org/2001/XMLSchema-instance" xsi:noNamespaceSchemaLocation="http://sumo.dlr.de/xsd/net_file.xsd">

    <location netOffset="0.00,0.00" convBoundary="0.00,0.00,300.00,300.00" origBoundary="0.00,0.00,300.00,300.00" projParameter="!"/>

    <edge id=":A0_0" function="internal">
        <lane id=":A0_0_0" index="0" speed="6.08" length="7.74" shape="-1.60,3.20 -1.30,1.10 -0.40,-0.40 1.10,-1.30 3.20,-1.60"/>
    </edge>
    <edge id=":A0_1" function="internal">
        <lane id=":A0_1_0" index="0" speed="3.90" length="2.58" shape="3.20,1.60 2.50,1.70 2.00,2.00 1.70,2.50 1.60,3.20"/>
    </edge>
    <edge id=":A1_0" function="internal">
        <lane id=":A1_0_0" index="0" speed="6.08" length="7.74" shape="3.20,301.60 1.10,301.30 -0.40,300.40 -1.30,298.90 -1.60,296.80"/>
    </edge>
    <edge id=":A1_1" function="internal">
        <lane id=":A1_1_0" index="0" speed="3.90" length="2.58" shape="1.60,296.80 1.70,297.50 2.00,298.00 2.50,298.30 3.20,298.40"/>
    </edge>
    <edge id=":B0_0" function="internal">
        <lane id=":B0_0_0" index="0" speed="3.90" length="2.58" shape="298.40,3.20 298.30,2.50 298.00,2.00 297.50,1.70 296.80,1.60"/>
    </edge>
    <edge id=":B0_1" function="internal">
        <lane id=":B0_1_0" index="0" speed="6.08" length="7.74" shape="296.80,-1.60 298.90,-1.30 300.40,-0.40 301.30,1.10 301.60,3.20"/>
    </edge>
    <edge id=":B1_0" function="internal">
        <lane id=":B1_0_0" index="0" speed="6.08" length="7.74" shape="301.60,296.80 301.30,298.90 300.40,300.40 298.90,301.30 296.80,301.60"/>
    </edge>
    <edge id=":B1_1" function="internal">
        <lane id=":B1_1_0" index="0" speed="3.90" length="2.58" shape="296.80,298.40 297.50,298.30 298.00,298.00 298.30,297.50 298.40,296.80"/>
    </edge>

    <edge id="A0A1" from="A0" to="A1" priority="-1">
        <lane id="A0A1_0" index="0" speed="13.89" length="293.60" shape="1.60,3.20 1.60,296.80"/>
    </edge>
    <edge id="A0B0" from="A0" to="B0" priority="-1">
        <lane id="A0B0_0" index="0" speed="13.89" length="293.60" shape="3.20,-1.60 296.80,-1.60"/>
    </edge>
    <edge id="A1A0" from="A1" to="A0" priority="-1">
        <lane id="A1A0_0" index="0" speed="13.89" length="293.60" shape="-1.60,296.80 -1.60,3.20"/>
    </edge>
    <edge id="A1B1" from="A1" to="B1" priority="-1">
        <lane id="A1B1_0" index="0" speed="13.89" length="293.60" shape="3.20,298.40 296.80,298.40"/>
    </edge>
    <edge id="B0A0" from="B0" to="A0" priority="-1">
        <lane id="B0A0_0" index="0" speed="13.89" length="293.60" shape="296.80,1.60 3.20,1.60"/>
    </edge>
    <edge id="B0B1" from="B0" to="B1" priority="-1">
        <lane id="B0B1_0" index="0" speed="13.89" length="293.60" shape="301.60,3.20 301.60,296.80"/>
    </edge>
    <edge id="B1A1" from="B1" to="A1" priority="-1">
        <lane id="B1A1_0" index="0" speed="13.89" length="293.60" shape="296.80,301.60 3.20,301.60"/>
    </edge>
    <edge id="B1B0" from="B1" to="B0" priority="-1">
        <lane id="B1B0_0" index="0" speed="13.89" length="293.60" shape="298.40,296.80 298.40,3.20"/>
    </edge>

    <junction id="A0" type="priority" x="0.00" y="0.00" incLanes="A1A0_0 B0A0_0" intLanes=":A0_0_0 :A0_1_0" shape="-3.20,3.20 3.20,3.20 3.20,-3.20 -0.36,-2.49 -1.60,-1.60 -2.49,-0.36 -3.02,1.24">
        <request index="0" response="00" foes="00" cont="0"/>
        <request index="1" response="00" foes="00" cont="0"/>
    </junction>
    <junction id="A1" type="priority" x="0.00" y="300.00" incLanes="B1A1_0 A0A1_0" intLanes=":A1_0_0 :A1_1_0" shape="3.20,303.20 3.20,296.80 -3.20,296.80 -2.49,300.36 -1.60,301.60 -0.36,302.49 1.24,303.02">
        <request index="0" response="00" foes="00" cont="0"/>
        <request index="1" response="00" foes="00" cont="0"/>
    </junction>
    <junction id="B0" type="priority" x="300.00" y="0.00" incLanes="B1B0_0 A0B0_0" intLanes=":B0_0_0 :B0_1_0" shape="296.80,3.20 303.20,3.20 302.49,-0.36 301.60,-1.60 300.36,-2.49 298.76,-3.02 296.80,-3.20">
        <request index="0" response="00" foes="00" cont="0"/>
        <request index="1" response="00" foes="00" cont="0"/>
    </junction>
    <junction id="B1" type="priority" x="300.00" y="300.00" incLanes="B0B1_0 A1B1_0" intLanes=":B1_0_0 :B1_1_0" shape="303.20,296.80 296.80,296.80 296.80,303.20 300.36,302.49 301.60,301.60 302.49,300.36 303.02,298.76">
        <request index="0" response="00" foes="00" cont="0"/>
        <request index="1" response="00" foes="00" cont="0"/>
    </junction>

    <connection from="A0A1" to="A1B1" fromLane="0" toLane="0" via=":A1_1_0" dir="r" state="M"/>
    <connection from="A0B0" to="B0B1" fromLane="0" toLane="0" via=":B0_1_0" dir="l" state="M"/>
    <connection from="A1A0" to="A0B0" fromLane="0" toLane="0" via=":A0_0_0" dir="l" state="M"/>
    <connection from="A1B1" to="B1B0" fromLane="0" toLane="0" via=":B1_1_0" dir="r" state="M"/>
    <connection from="B0A0" to="A0A1" fromLane="0" toLane="0" via=":A0_1_0" dir="r" state="M"/>
    <connection from="B0B1" to="B1A1" fromLane="0" toLane="0" via=":B1_0_0" dir="l" state="M"/>
    <connection from="B1A1" to="A1A0" fromLane="0" toLane="0" via=":A1_0_0" dir="l" state="M"/>
    <connection from="B1B0" to="B0A0" fromLane="0" toLane="0" via=":B0_0_0" dir="r" state="M"/>

    <connection from=":A0_0" to="A0B0" fromLane="0" toLane="0" dir="l" state="M"/>
    <connection from=":A0_1" to="A0A1" fromLane="0" toLane="0" dir="r" state="M"/>
    <connection from=":A1_0" to="A1A0" fromLane="0" toLane="0" dir="l" state="M"/>
    <connection from=":A1_1" to="A1B1" fromLane="0" toLane="0" dir="r" state="M"/>
    <connection from=":B0_0" to="B0A0" fromLane="0" toLane="0" dir="r" state="M"/>
    <connection from=":B0_1" to="B0B1" fromLane="0" toLane="0" dir="l" state="M"/>
    <connection from=":B1_0" to="B1A1" fromLane="0" toLane="0" dir="l" state="M"/>
    <connection from=":B1_1" to="B1B0" fromLane="0" toLane="0" dir="r" state="M"/>

</net>
